<?xml version="1.0" encoding="UTF-8"?>

<!-- generated on 2022-01-06 20:20:12 by Eclipse SUMO polyconvert Version 1.11.0
<configuration xmlns:xsi="http://www.w3.org/2001/XMLSchema-instance" xsi:noNamespaceSchemaLocation="http://sumo.dlr.de/xsd/polyconvertConfiguration.xsd">

    <input>
        <net-file value="test4.net.xml"/>
        <osm-files value="map3.osm"/>
        <type-file value="typemap.xml"/>
    </input>

    <output>
        <output-file value="map.poly.xml"/>
    </output>

    <processing>
        <poi-layer-offset value="5"/>
    </processing>

    <report>
        <xml-validation value="never"/>
    </report>

</configuration>
-->

<additional xmlns:xsi="http://www.w3.org/2001/XMLSchema-instance" xsi:noNamespaceSchemaLocation="http://sumo.dlr.de/xsd/additional_file.xsd">
    <location netOffset="-696471.13,-5708020.28" convBoundary="0.00,-658.90,6617.74,5221.48" origBoundary="-0.167941,51.482427,-0.073516,51.535362" projParameter="+proj=utm +zone=30 +ellps=WGS84 +datum=WGS84 +units=m +no_defs"/>

    <poly id="100013418" type="building" color="255,230,230" fill="1" layer="-1.00" shape="3138.680680,2541.390888 3143.674984,2545.317683 3126.786594,2566.968786 3121.463667,2562.917729 3138.680680,2541.390888"/>
    <poly id="100013419" type="building" color="255,230,230" fill="1" layer="-1.00" shape="3091.723947,2539.789205 3096.742482,2543.984154 3109.414890,2527.411929 3111.425558,2524.696016 3106.199526,2521.183288 3091.723947,2539.789205"/>
    <poly id="100013422" type="building" color="255,230,230" fill="1" layer="-1.00" shape="3186.879253,2569.711160 3201.348691,2581.115181 3198.155363,2585.633008 3196.846108,2587.474517 3184.899113,2578.185251 3178.482528,2573.322762 3183.138103,2567.136461 3186.879253,2569.711160"/>
    <poly id="100013425" type="building" color="255,230,230" fill="1" layer="-1.00" shape="3083.256818,2533.175905 3091.723947,2539.789205 3106.199526,2521.183288 3107.998508,2518.726298 3105.311695,2516.549456 3102.908714,2514.929411 3099.399748,2519.523968 3096.026653,2516.952676 3083.256818,2533.175905"/>
    <poly id="100013427" type="building" color="255,230,230" fill="1" layer="-1.00" shape="3175.821212,2576.681178 3169.887882,2572.427888 3164.388204,2579.583182 3156.633242,2589.667462 3162.202367,2593.817327 3175.821212,2576.681178"/>
    <poly id="100013429" type="building" color="255,230,230" fill="1" layer="-1.00" shape="3138.680680,2541.390888 3150.368804,2526.528301 3155.406610,2530.055943 3146.714662,2541.172383 3143.674984,2545.317683 3138.680680,2541.390888"/>
    <poly id="100013430" type="building" color="255,230,230" fill="1" layer="-1.00" shape="3108.209876,2506.107073 3111.356652,2508.602660 3105.311695,2516.549456 3107.998508,2518.726298 3114.051454,2510.223049 3117.959736,2504.486124 3119.120606,2502.883739 3113.121467,2499.240383 3108.209876,2506.107073"/>
    <poly id="100013430#1" type="shop" color="237,199,255" fill="1" layer="-1.00" shape="3108.209876,2506.107073 3111.356652,2508.602660 3105.311695,2516.549456 3107.998508,2518.726298 3114.051454,2510.223049 3117.959736,2504.486124 3119.120606,2502.883739 3113.121467,2499.240383 3108.209876,2506.107073"/>
    <poly id="100013431" type="building" color="255,230,230" fill="1" layer="-1.00" shape="3141.202691,2559.239911 3132.112952,2571.109068 3145.759845,2581.522928 3154.508604,2570.197152 3152.880929,2568.652119 3151.665931,2570.040794 3148.567976,2568.248629 3156.042383,2558.231248 3153.535055,2556.261875 3157.216736,2551.340086 3150.827344,2546.668007 3148.483098,2549.738253 3149.859456,2550.783441 3142.631924,2560.353989 3141.202691,2559.239911"/>
    <poly id="100013433" type="amenity" color="237,199,199" fill="1" layer="-1.00" shape="3174.064873,2560.744133 3177.005702,2562.997820 3169.887882,2572.427888 3175.821212,2576.681178 3178.482528,2573.322762 3183.138103,2567.136461 3188.252691,2560.233284 3192.233344,2554.777645 3183.367233,2548.772054 3176.077692,2558.150818 3174.064873,2560.744133"/>
    <poly id="100013433#1" type="building" color="255,230,230" fill="1" layer="-1.00" shape="3174.064873,2560.744133 3177.005702,2562.997820 3169.887882,2572.427888 3175.821212,2576.681178 3178.482528,2573.322762 3183.138103,2567.136461 3188.252691,2560.233284 3192.233344,2554.777645 3183.367233,2548.772054 3176.077692,2558.150818 3174.064873,2560.744133"/>
    <poly id="100013435" type="building" color="255,230,230" fill="1" layer="-1.00" shape="3097.199444,2510.629349 3100.280346,2506.318613 3089.289932,2498.492543 3086.480157,2502.446478 3097.199444,2510.629349"/>
    <poly id="100013435#1" type="shop" color="237,199,255" fill="1" layer="-1.00" shape="3097.199444,2510.629349 3100.280346,2506.318613 3089.289932,2498.492543 3086.480157,2502.446478 3097.199444,2510.629349"/>
    <poly id="100013440" type="amenity" color="237,199,199" fill="1" layer="-1.00" shape="3114.051454,2510.223049 3117.959736,2504.486124 3123.977435,2508.364061 3111.425558,2524.696016 3106.199526,2521.183288 3107.998508,2518.726298 3114.051454,2510.223049"/>
    <poly id="100013440#1" type="building" color="255,230,230" fill="1" layer="-1.00" shape="3114.051454,2510.223049 3117.959736,2504.486124 3123.977435,2508.364061 3111.425558,2524.696016 3106.199526,2521.183288 3107.998508,2518.726298 3114.051454,2510.223049"/>
    <poly id="100013443" type="building" color="255,230,230" fill="1" layer="-1.00" shape="3116.775758,2559.504098 3131.439517,2541.061545 3145.613686,2523.056324 3134.666194,2515.554764 3130.719452,2520.855883 3121.417002,2533.362549 3118.907898,2536.738115 3106.671759,2551.757383 3116.775758,2559.504098"/>
    <poly id="100013446" type="building" color="255,230,230" fill="1" layer="-1.00" shape="3200.964119,2560.867012 3196.823020,2566.338603 3194.304836,2564.469000 3193.437003,2563.744462 3188.252691,2560.233284 3192.233344,2554.777645 3198.368745,2559.016641 3200.964119,2560.867012"/>
    <poly id="100013447" type="building" color="255,230,230" fill="1" layer="-1.00" shape="3089.289932,2498.492543 3096.980478,2487.748641 3108.883451,2496.223060 3113.121467,2499.240383 3108.209876,2506.107073 3102.349995,2514.294994 3097.199444,2510.629349 3100.280346,2506.318613 3089.289932,2498.492543"/>
    <poly id="100013449" type="amenity" color="237,199,199" fill="1" layer="-1.00" shape="3096.026653,2516.952676 3083.256818,2533.175905 3071.603331,2524.366155 3071.647483,2523.243216 3082.971636,2507.029928 3096.026653,2516.952676"/>
    <poly id="100013449#1" type="building" color="255,230,230" fill="1" layer="-1.00" shape="3096.026653,2516.952676 3083.256818,2533.175905 3071.603331,2524.366155 3071.647483,2523.243216 3082.971636,2507.029928 3096.026653,2516.952676"/>
    <poly id="100013453" type="building" color="255,230,230" fill="1" layer="-1.00" shape="3126.786594,2566.968786 3132.112952,2571.109068 3141.202691,2559.239911 3148.483098,2549.738253 3150.827344,2546.668007 3151.999905,2545.121766 3146.714662,2541.172383 3143.674984,2545.317683 3126.786594,2566.968786"/>
    <poly id="100013455" type="building" color="255,230,230" fill="1" layer="-1.00" shape="3184.899113,2578.185251 3169.298263,2599.073988 3173.016832,2601.692332 3175.919383,2597.853447 3184.339473,2604.420525 3196.846108,2587.474517 3184.899113,2578.185251"/>
    <poly id="1002105976" type="unknown" color="51,128,255" fill="0" layer="-1.00" shape="3622.998177,1172.640415 3621.928065,1169.636217 3619.521106,1166.868856 3615.589801,1165.745147 3613.420718,1165.759887 3605.081776,1154.963969 3599.611296,1146.864517 3591.592287,1138.531027 3584.184027,1131.101315"/>
    <poly id="1012855209" type="landuse" color="194,194,130" fill="1" layer="-3.00" shape="2888.017587,2287.740525 2887.874965,2293.848235 2888.365378,2293.923175 2888.262693,2298.306473 2888.705850,2298.346150 2888.616505,2303.097439 2889.178044,2303.130632 2889.030186,2307.779404 2889.543159,2307.810689 2889.143670,2316.035163 2894.223563,2316.201295 2894.356407,2315.649745 2898.841333,2315.926136 2899.199312,2319.726221 2907.376921,2320.281299 2923.881815,2321.118992 2938.588956,2321.730210 2962.371369,2322.686931 2964.028228,2322.785442 2964.483603,2313.672332 2965.348400,2290.956753 2900.223364,2287.819096 2900.055879,2288.191120 2888.017587,2287.740525"/>
    <poly id="1012865708" type="unknown" color="51,128,255" fill="0" layer="-1.00" shape="2899.967409,2291.327816 2900.055879,2288.191120 2900.223364,2287.819096 2965.348400,2290.956753 2964.028228,2322.785442 2943.264696,2321.925054"/>
    <poly id="1012865711" type="unknown" color="51,128,255" fill="0" layer="-1.00" shape="3000.575153,2389.163176 3003.322545,2389.271156"/>
    <poly id="1012865712" type="unknown" color="51,128,255" fill="0" layer="-1.00" shape="2996.087902,2409.809973 3002.814066,2414.584155"/>
    <poly id="1012865713" type="unknown" color="51,128,255" fill="0" layer="-1.00" shape="2981.237217,2401.364762 2995.245428,2411.090836 2996.087902,2409.809973"/>
    <poly id="1012865714" type="unknown" color="51,128,255" fill="0" layer="-1.00" shape="2941.641216,2321.861267 2938.588956,2321.730210 2923.881815,2321.118992 2899.199312,2319.726221 2899.102056,2317.072184"/>
    <poly id="1012865715" type="unknown" color="51,128,255" fill="1" layer="-1.00" shape="2948.317008,2325.976401 2947.608953,2325.781550 2946.723517,2325.679948 2945.574773,2325.913197 2944.911197,2326.354810 2944.045881,2327.155964 2943.466665,2328.280149 2943.237456,2329.161973 2943.287408,2330.366555 2943.589362,2331.347196 2944.317588,2332.266638 2945.155176,2332.878586 2946.037938,2333.225061 2947.106380,2333.267041 2948.052996,2333.226287 2948.761488,2333.410020 2949.796987,2333.406165 2951.032916,2333.076124 2951.947620,2332.432807 2952.395298,2331.826817 2952.853024,2330.965108 2953.004555,2330.291804 2953.108883,2329.405074 2952.918375,2328.417676 2952.608122,2327.648281 2951.962279,2326.754345 2951.250396,2326.303230 2950.188994,2325.905194 2949.428441,2325.808498 2948.744591,2325.881847 2948.317008,2325.976401"/>
    <poly id="1012865718" type="building" color="255,230,230" fill="1" layer="-1.00" shape="2899.042299,2211.038940 2899.700662,2207.546027 2901.480211,2207.883177 2900.814909,2211.375817 2899.042299,2211.038940"/>
    <poly id="1012865718#1" type="shop" color="237,199,255" fill="1" layer="-1.00" shape="2899.042299,2211.038940 2899.700662,2207.546027 2901.480211,2207.883177 2900.814909,2211.375817 2899.042299,2211.038940"/>
    <poly id="1012865719" type="building" color="255,230,230" fill="1" layer="-1.00" shape="2905.226705,2212.985578 2906.101066,2210.893070 2909.662532,2212.391485 2908.788607,2214.472874 2905.226705,2212.985578"/>
    <poly id="1012865719#1" type="shop" color="237,199,255" fill="1" layer="-1.00" shape="2905.226705,2212.985578 2906.101066,2210.893070 2909.662532,2212.391485 2908.788607,2214.472874 2905.226705,2212.985578"/>
    <poly id="1012865720" type="unknown" color="51,128,255" fill="0" layer="-1.00" shape="2897.023469,2218.208759 2897.435841,2215.140462 2898.164935,2213.031112 2898.727217,2211.984204 2900.496522,2213.289728 2899.671415,2214.482207 2899.189670,2215.955422 2898.928823,2218.350413"/>
    <poly id="1012865721" type="unknown" color="51,128,255" fill="0" layer="-1.00" shape="2910.248389,2212.336552 2909.043543,2211.520883 2907.776691,2210.691643 2905.648928,2210.374219 2905.746559,2208.596396 2907.303701,2208.757781 2908.883791,2209.042557 2910.493132,2210.174770 2912.448839,2211.688057"/>
    <poly id="1013566027" type="unknown" color="51,128,255" fill="0" layer="-1.00" shape="3718.615692,1207.143400 3723.463726,1204.405931"/>
    <poly id="104080990" type="building" color="255,230,230" fill="1" layer="-1.00" shape="3047.827829,2179.459431 3041.702254,2172.303575 3042.980075,2171.262536 3048.767481,2166.868848 3054.725609,2174.218568 3047.827829,2179.459431"/>
    <poly id="104080992" type="building" color="255,230,230" fill="1" layer="-1.00" shape="3093.984837,2131.320693 3092.946010,2132.115003 3089.093041,2135.025746 3095.427724,2143.225473 3099.962284,2139.239130 3093.984837,2131.320693"/>
    <poly id="104080994" type="building" color="255,230,230" fill="1" layer="-1.00" shape="3021.573305,2173.138156 3022.420412,2172.447651 3023.045007,2171.937702 3026.110731,2169.430250 3017.605847,2158.985056 3012.820830,2162.627562 3021.573305,2173.138156"/>
    <poly id="104080995" type="building" color="255,230,230" fill="1" layer="-1.00" shape="3032.440880,2179.867928 3038.160440,2187.453229 3039.628596,2189.348275 3037.120711,2191.276336 3035.625676,2189.357963 3033.203673,2191.222588 3027.357805,2184.022067 3031.335259,2180.770977 3032.440880,2179.867928"/>
    <poly id="104080997" type="building" color="255,230,230" fill="1" layer="-1.00" shape="3030.116384,2166.169132 3029.046764,2167.040191 3028.501109,2167.486430 3026.110731,2169.430250 3017.605847,2158.985056 3021.416412,2155.560368 3030.116384,2166.169132"/>
    <poly id="104081001" type="building" color="255,230,230" fill="1" layer="-1.00" shape="3061.804587,2156.591158 3060.936220,2157.291956 3057.039419,2160.434842 3062.573171,2167.266796 3063.481303,2168.382628 3068.246468,2164.538951 3061.804587,2156.591158"/>
    <poly id="104081002" type="building" color="255,230,230" fill="1" layer="-1.00" shape="3073.466395,2147.183666 3072.289193,2148.139571 3068.291747,2151.367575 3074.482048,2159.528192 3079.833590,2155.440328 3073.466395,2147.183666"/>
    <poly id="104081006" type="building" color="255,230,230" fill="1" layer="-1.00" shape="3020.257827,2189.811786 3019.152211,2190.714838 3012.985232,2195.750625 3017.812781,2201.986871 3019.544641,2203.714110 3023.574415,2200.899351 3026.013530,2204.079719 3029.588451,2201.169140 3027.607090,2198.541260 3020.257827,2189.811786"/>
    <poly id="104081007" type="building" color="255,230,230" fill="1" layer="-1.00" shape="3057.039419,2160.434842 3053.487019,2163.301748 3050.746169,2165.499030 3056.387491,2172.246123 3060.170471,2176.771040 3063.630430,2174.134347 3062.478208,2172.864159 3065.437202,2170.597512 3064.460564,2169.456715 3062.932417,2170.855376 3062.049907,2169.618062 3063.521183,2168.428738 3062.573171,2167.266796 3057.039419,2160.434842"/>
    <poly id="104081009" type="building" color="255,230,230" fill="1" layer="-1.00" shape="3089.093041,2135.025746 3085.017561,2138.117046 3084.373015,2138.603932 3090.610565,2146.799834 3095.427724,2143.225473 3089.093041,2135.025746"/>
    <poly id="104081013" type="building" color="255,230,230" fill="1" layer="-1.00" shape="3040.281906,2128.708420 3038.422820,2120.317219 3023.925446,2123.900894 3023.048448,2124.467735 3022.141021,2125.278359 3021.650325,2126.094226 3021.271461,2127.070384 3021.105007,2128.299868 3021.244324,2129.352069 3021.830693,2130.522058 3024.283394,2133.357760 3038.185100,2150.584964 3042.313986,2155.680231 3053.085155,2147.362359 3048.793252,2142.171592 3047.765469,2140.917435 3041.154055,2132.684625 3038.716329,2129.114568 3040.281906,2128.708420"/>
    <poly id="104081015" type="building" color="255,230,230" fill="1" layer="-1.00" shape="3016.411729,2177.344897 3019.908156,2174.486902 3020.546627,2173.977498 3021.573305,2173.138156 3012.820830,2162.627562 3007.836586,2166.919229 3009.343873,2168.526284 3016.411729,2177.344897"/>
    <poly id="104081016" type="building" color="255,230,230" fill="1" layer="-1.00" shape="3027.357805,2184.022067 3025.232885,2185.753613 3020.257827,2189.811786 3027.607090,2198.541260 3030.903670,2195.463846 3032.907593,2198.048072 3036.404400,2195.357134 3033.203673,2191.222588 3027.357805,2184.022067"/>
    <poly id="104081019" type="amenity" color="237,199,199" fill="1" layer="-1.00" shape="3157.018656,2098.812014 3153.915379,2093.790392 3151.382616,2091.931390 3147.435086,2090.707145 3143.217434,2090.697172 3139.495115,2091.697732 3136.432578,2093.414635 3115.438005,2109.715283 3117.401437,2112.799043 3124.612587,2123.449651 3145.898142,2108.407649 3147.808527,2110.542827 3152.262464,2106.664710 3150.745927,2104.233229 3157.018656,2098.812014"/>
    <poly id="104081019#1" type="building" color="255,230,230" fill="1" layer="-1.00" shape="3157.018656,2098.812014 3153.915379,2093.790392 3151.382616,2091.931390 3147.435086,2090.707145 3143.217434,2090.697172 3139.495115,2091.697732 3136.432578,2093.414635 3115.438005,2109.715283 3117.401437,2112.799043 3124.612587,2123.449651 3145.898142,2108.407649 3147.808527,2110.542827 3152.262464,2106.664710 3150.745927,2104.233229 3157.018656,2098.812014"/>
    <poly id="104081021" type="building" color="255,230,230" fill="1" layer="-1.00" shape="3034.811706,2162.333814 3037.977635,2159.752360 3038.537605,2159.295549 3039.643231,2158.392501 3030.728616,2147.764149 3030.247588,2148.157251 3026.214115,2151.595442 3034.811706,2162.333814"/>
    <poly id="104081024" type="building" color="255,230,230" fill="1" layer="-1.00" shape="3084.373015,2138.603932 3083.176305,2139.525661 3078.934697,2142.777465 3085.678301,2151.004391 3090.610565,2146.799834 3084.373015,2138.603932"/>
    <poly id="104081025" type="building" color="255,230,230" fill="1" layer="-1.00" shape="3099.585818,2127.075623 3094.987224,2130.569492 3093.984837,2131.320693 3099.962284,2139.239130 3105.656957,2134.908668 3099.585818,2127.075623"/>
    <poly id="104081028" type="building" color="255,230,230" fill="1" layer="-1.00" shape="3034.811706,2162.333814 3026.214115,2151.595442 3022.823927,2154.401933 3021.416412,2155.560368 3030.116384,2166.169132 3033.196428,2163.651111 3033.742084,2163.204873 3034.811706,2162.333814"/>
    <poly id="104081029" type="building" color="255,230,230" fill="1" layer="-1.00" shape="3104.763901,2123.159128 3110.436175,2130.709246 3105.656957,2134.908668 3099.585818,2127.075623 3100.738718,2126.207852 3102.593859,2124.799788 3104.763901,2123.159128"/>
    <poly id="104081032" type="building" color="255,230,230" fill="1" layer="-1.00" shape="3017.231400,2211.651797 3022.767219,2207.292737 3019.544641,2203.714110 3016.672279,2206.429601 3014.846451,2204.264390 3017.812781,2201.986871 3012.985232,2195.750625 3012.001500,2196.558251 3007.854933,2199.869520 3006.523753,2201.030959 3003.260784,2203.430451 3008.708672,2210.325783 3009.327197,2209.793324 3010.242386,2211.967284 3012.540272,2213.260217 3014.684144,2213.344477 3017.231400,2211.651797"/>
    <poly id="104081033" type="building" color="255,230,230" fill="1" layer="-1.00" shape="3050.057978,2182.475701 3047.827829,2179.459431 3041.702254,2172.303575 3039.613326,2174.003125 3038.083931,2175.256983 3037.050312,2176.096049 3042.823190,2183.739128 3044.786738,2182.223953 3047.206511,2184.835666 3050.057978,2182.475701"/>
    <poly id="104081033#1" type="tourism" color="207,245,201" fill="1" layer="-2.00" shape="3050.057978,2182.475701 3047.827829,2179.459431 3041.702254,2172.303575 3039.613326,2174.003125 3038.083931,2175.256983 3037.050312,2176.096049 3042.823190,2183.739128 3044.786738,2182.223953 3047.206511,2184.835666 3050.057978,2182.475701"/>
    <poly id="104081036" type="building" color="255,230,230" fill="1" layer="-1.00" shape="3037.050312,2176.096049 3033.402930,2179.081724 3032.440880,2179.867928 3038.160440,2187.453229 3040.152611,2185.916906 3041.752974,2187.984181 3044.489876,2185.886958 3042.823190,2183.739128 3037.050312,2176.096049"/>
    <poly id="104081037" type="building" color="255,230,230" fill="1" layer="-1.00" shape="3068.291747,2151.367575 3066.906783,2152.482343 3064.115169,2154.733299 3061.804587,2156.591158 3068.246468,2164.538951 3074.482048,2159.528192 3068.291747,2151.367575"/>
    <poly id="104081041" type="building" color="255,230,230" fill="1" layer="-1.00" shape="3078.934697,2142.777465 3074.635785,2146.249726 3073.466395,2147.183666 3079.833590,2155.440328 3085.678301,2151.004391 3078.934697,2142.777465"/>
    <poly id="104853591" type="building" color="255,230,230" fill="1" layer="-1.00" shape="2893.339581,2656.563520 2906.346268,2665.414892 2884.771319,2674.633687 2886.304491,2659.483004 2893.339581,2656.563520"/>
    <poly id="105957600" type="building" color="255,230,230" fill="1" layer="-1.00" shape="2866.655087,1685.626027 2856.013126,1685.152483 2855.898404,1687.720242 2853.317603,1687.607772 2852.766216,1700.057703 2860.182042,1700.393429 2865.988941,1700.643717 2866.655087,1685.626027"/>
    <poly id="105957601" type="leisure" color="207,245,201" fill="1" layer="-2.00" shape="2832.606004,1699.165943 2827.685102,1741.665633 2879.055505,1752.279190 2882.104899,1738.335000 2886.067169,1739.192130 2888.406081,1727.413704 2860.344984,1724.207189 2862.234052,1706.008269 2859.815471,1705.835353 2860.182042,1700.393429 2843.005077,1699.629904 2832.606004,1699.165943"/>
    <poly id="106485306" type="building" color="255,230,230" fill="1" layer="-1.00" shape="3669.226484,1540.896624 3672.275302,1549.412951 3656.272331,1559.928660 3648.838081,1564.813584 3649.310808,1565.867816 3643.756971,1568.889304 3639.964843,1559.129933 3639.678590,1557.047456 3639.921018,1554.952413 3640.672988,1552.977673 3642.255963,1550.902065 3644.406843,1549.405615 3650.832830,1545.416316 3658.216411,1542.522641 3658.453432,1543.033080 3661.136578,1542.314830 3660.462914,1540.540008 3657.824322,1541.538401 3655.485223,1535.644622 3659.621411,1534.560504 3658.769594,1532.544815 3661.776690,1531.895012 3665.237233,1531.730777 3669.226484,1540.896624"/>
    <poly id="106485310" type="building" color="255,230,230" fill="1" layer="-1.00" shape="3681.724337,1587.556937 3682.196253,1588.455244 3692.022736,1580.535627 3702.469889,1572.562552 3688.127129,1556.129011 3679.180247,1546.144102 3678.763690,1545.604312 3670.984704,1551.299639 3678.177312,1564.355568 3682.450056,1573.733045 3676.731340,1577.939491 3678.956679,1581.958041 3681.724337,1587.556937"/>
    <poly id="106485317" type="building" color="255,230,230" fill="1" layer="-1.00" shape="3702.469889,1572.562552 3706.976637,1568.954200 3706.657457,1567.883746 3700.451894,1546.893704 3692.132086,1537.044851 3679.180247,1546.144102 3688.127129,1556.129011 3702.469889,1572.562552"/>
    <poly id="106485318" type="building" color="255,230,230" fill="1" layer="-1.00" shape="3707.929439,1549.549262 3698.635951,1536.722244 3720.266382,1520.972189 3720.635680,1521.476711 3718.691313,1533.949701 3715.356879,1536.379370 3719.063280,1541.436261 3707.929439,1549.549262"/>
    <poly id="106485319" type="building" color="255,230,230" fill="1" layer="-1.00" shape="3669.301984,1502.137096 3670.770057,1506.326224 3677.941160,1524.336576 3684.111543,1521.896202 3684.747588,1523.391158 3682.053684,1524.910725 3687.856635,1534.081283 3688.991776,1535.785220 3712.168638,1520.296542 3716.171287,1517.136007 3718.179659,1513.262115 3719.169953,1509.826902 3719.761621,1483.013780 3715.345271,1482.917583 3715.432095,1484.769492 3713.117861,1484.767322 3711.317998,1484.763164 3711.247855,1486.542072 3707.067438,1486.455184 3706.606125,1490.223049 3700.795072,1492.009440 3699.963353,1489.660472 3669.301984,1502.137096"/>
    <poly id="106485320" type="building" color="255,230,230" fill="1" layer="-1.00" shape="3677.941160,1524.336576 3666.863981,1528.721523 3659.692847,1510.711187 3670.770057,1506.326224 3677.941160,1524.336576"/>
    <poly id="106485321" type="building" color="255,230,230" fill="1" layer="-1.00" shape="3656.523874,1512.646322 3659.192550,1519.700044 3654.388592,1521.503914 3655.376782,1524.115158 3654.851529,1525.274810 3653.250065,1525.879807 3651.993877,1525.306922 3651.433276,1523.837215 3649.274861,1524.642967 3653.164368,1534.929548 3654.934996,1534.264407 3655.485223,1535.644622 3657.824322,1541.538401 3658.216411,1542.522641 3650.832830,1545.416316 3640.251534,1549.564749 3630.055042,1522.615934 3656.523874,1512.646322"/>
    <poly id="106485321#1" type="tourism" color="207,245,201" fill="1" layer="-2.00" shape="3656.523874,1512.646322 3659.192550,1519.700044 3654.388592,1521.503914 3655.376782,1524.115158 3654.851529,1525.274810 3653.250065,1525.879807 3651.993877,1525.306922 3651.433276,1523.837215 3649.274861,1524.642967 3653.164368,1534.929548 3654.934996,1534.264407 3655.485223,1535.644622 3657.824322,1541.538401 3658.216411,1542.522641 3650.832830,1545.416316 3640.251534,1549.564749 3630.055042,1522.615934 3656.523874,1512.646322"/>
    <poly id="106485803" type="residential" color="235,235,227" fill="1" layer="-3.00" shape="3679.450163,1356.840944 3719.188511,1357.249615 3721.687283,1359.976112 3722.174416,1395.740131 3720.869621,1401.334357 3717.692115,1406.832468 3711.252894,1411.856772 3707.060269,1413.840601 3699.873638,1415.082801 3694.274279,1414.494564 3685.669746,1410.803553 3678.060951,1405.125161 3672.124569,1399.334544 3667.352068,1392.932824 3664.114079,1386.391163 3662.424486,1380.767971 3662.459332,1375.123673 3663.687952,1370.049800 3666.022402,1365.309040 3669.193221,1362.271569 3673.343433,1359.072271 3679.450163,1356.840944"/>
    <poly id="106771450" type="tourism" color="207,245,201" fill="1" layer="-2.00" shape="2362.600643,2379.640886 2358.986299,2385.345315 2354.344604,2394.216462 2354.115469,2397.759642 2354.344635,2401.487806 2355.533458,2404.841559 2357.232660,2408.115089 2360.001993,2411.564167 2363.422667,2414.704707 2368.207319,2416.373152 2373.230286,2416.569945 2376.303296,2416.701480 2382.710095,2415.983730 2385.637073,2415.586190 2390.373139,2414.947747 2401.401795,2414.555878 2411.050035,2415.345957 2418.520574,2416.562937 2429.744659,2419.163048 2431.597820,2419.747899 2436.435671,2422.008665 2441.758422,2416.861197 2440.702270,2416.151686 2404.196901,2398.018140 2386.145449,2388.246698 2376.573462,2382.671483 2380.495431,2376.032618 2373.694013,2371.746303 2368.798502,2369.004524 2362.600643,2379.640886"/>
    <poly id="107035569" type="amenity" color="237,199,199" fill="1" layer="-1.00" shape="2905.801272,2404.257988 2905.769203,2408.788822 2905.217433,2417.174346 2904.301637,2430.935086 2916.840451,2432.786191 2921.249252,2439.596077 2921.288082,2441.791270 2925.801369,2445.587582 2927.612129,2445.658724 2928.823106,2444.548224 2931.929431,2447.899526 2929.706691,2461.497564 2953.824450,2465.574232 2976.324106,2470.511663 2980.537756,2453.818296 2982.849003,2444.867202 2983.570564,2441.889008 2973.998922,2440.388181 2971.563044,2439.780230 2964.619075,2434.006481 2971.449481,2435.243670 2972.529734,2427.558172 2961.163407,2425.753002 2959.270189,2424.420312 2959.682805,2420.639363 2960.277585,2415.228674 2952.625044,2413.870114 2952.270891,2417.931744 2951.732747,2418.010817 2950.333035,2416.497085 2949.216992,2417.666988 2949.827364,2418.225469 2948.916940,2419.113931 2942.153328,2411.754946 2917.380548,2406.127072 2905.801272,2404.257988"/>
    <poly id="107035569#1" type="building" color="255,230,230" fill="1" layer="-1.00" shape="2905.801272,2404.257988 2905.769203,2408.788822 2905.217433,2417.174346 2904.301637,2430.935086 2916.840451,2432.786191 2921.249252,2439.596077 2921.288082,2441.791270 2925.801369,2445.587582 2927.612129,2445.658724 2928.823106,2444.548224 2931.929431,2447.899526 2929.706691,2461.497564 2953.824450,2465.574232 2976.324106,2470.511663 2980.537756,2453.818296 2982.849003,2444.867202 2983.570564,2441.889008 2973.998922,2440.388181 2971.563044,2439.780230 2964.619075,2434.006481 2971.449481,2435.243670 2972.529734,2427.558172 2961.163407,2425.753002 2959.270189,2424.420312 2959.682805,2420.639363 2960.277585,2415.228674 2952.625044,2413.870114 2952.270891,2417.931744 2951.732747,2418.010817 2950.333035,2416.497085 2949.216992,2417.666988 2949.827364,2418.225469 2948.916940,2419.113931 2942.153328,2411.754946 2917.380548,2406.127072 2905.801272,2404.257988"/>
    <poly id="107035573" type="amenity" color="237,199,199" fill="1" layer="-1.00" shape="2915.948783,2439.387838 2903.857884,2437.632279 2903.294810,2446.128713 2920.231393,2449.232722 2920.539271,2446.171457 2920.941374,2442.657343 2918.408209,2442.580093 2918.825730,2439.734707 2915.948783,2439.387838"/>
    <poly id="107035573#1" type="building" color="255,230,230" fill="1" layer="-1.00" shape="2915.948783,2439.387838 2903.857884,2437.632279 2903.294810,2446.128713 2920.231393,2449.232722 2920.539271,2446.171457 2920.941374,2442.657343 2918.408209,2442.580093 2918.825730,2439.734707 2915.948783,2439.387838"/>
    <poly id="107035575" type="building" color="255,230,230" fill="1" layer="-1.00" shape="2990.878415,2418.424451 2990.346888,2419.572776 2989.567027,2421.735796 2988.342336,2425.139632 2976.575746,2423.441187 2977.363003,2418.260769 2983.701280,2419.467498 2983.960430,2418.531176 2984.146813,2417.324745 2990.878415,2418.424451"/>
    <poly id="107035577" type="building" color="255,230,230" fill="1" layer="-1.00" shape="2976.575746,2423.441187 2988.342336,2425.139632 2987.205546,2428.958931 2986.797099,2430.334801 2976.202295,2428.170181 2975.766961,2428.108531 2975.981530,2426.892072 2976.575746,2423.441187"/>
    <poly id="107035579" type="building" color="255,230,230" fill="1" layer="-1.00" shape="2986.797099,2430.334801 2985.556084,2434.684503 2985.249191,2435.774844 2984.911050,2436.953040 2975.023862,2434.994397 2976.202295,2428.170181 2986.797099,2430.334801"/>
    <poly id="107035580" type="amenity" color="237,199,199" fill="1" layer="-1.00" shape="2975.023862,2434.994397 2973.998922,2440.388181 2983.570564,2441.889008 2984.911050,2436.953040 2975.023862,2434.994397"/>
    <poly id="107035580#1" type="building" color="255,230,230" fill="1" layer="-1.00" shape="2975.023862,2434.994397 2973.998922,2440.388181 2983.570564,2441.889008 2984.911050,2436.953040 2975.023862,2434.994397"/>
    <poly id="107035584" type="building" color="255,230,230" fill="1" layer="-1.00" shape="2959.682805,2420.639363 2976.575746,2423.441187 2977.363003,2418.260769 2960.277585,2415.228674 2959.682805,2420.639363"/>
    <poly id="107674929" type="building" color="255,230,230" fill="1" layer="-1.00" shape="3659.867101,1196.509180 3663.289903,1202.245226 3665.813265,1207.700840 3661.833294,1212.220844 3649.097338,1208.066414 3646.626630,1203.214198 3657.278523,1197.821348 3659.867101,1196.509180"/>