<?xml version="1.0" encoding="UTF-8"?>

<!-- generated on 2022-01-06 20:20:54 by Eclipse SUMO duarouter Version 1.11.0
<configuration xmlns:xsi="http://www.w3.org/2001/XMLSchema-instance" xsi:noNamespaceSchemaLocation="http://sumo.dlr.de/xsd/duarouterConfiguration.xsd">

    <input>
        <net-file value="test4.net.xml"/>
        <route-files value="trips.trips.xml"/>
    </input>

    <output>
        <output-file value="trips.trips.xml.tmp"/>
        <write-trips value="true"/>
    </output>

    <time>
        <begin value="0"/>
        <end value="1000"/>
    </time>

    <report>
        <no-warnings value="true"/>
        <ignore-errors value="true"/>
        <no-step-log value="true"/>
    </report>

</configuration>
-->

<routes xmlns:xsi="http://www.w3.org/2001/XMLSchema-instance" xsi:noNamespaceSchemaLocation="http://sumo.dlr.de/xsd/routes_file.xsd">

    <vType id="ambulance" vClass="emergency" guiShape="emergency">
      <param key="has.bluelight.device" value="false"/>
    </vType>

    <trip id="501" depart="0.00" from="-656455801" to="100077167#3"/>
    <trip id="502" depart="0.50" from="-656455801" to="100077167#3"/>
    <trip id="1" depart="1.00" from="-542471105#8" to="-48046844"/>
    <trip id="503" depart="1.50" from="-564865636#0" to="-4082596#3"/>
    <trip id="2" depart="2.00" from="4268555#2" to="4258088#0"/>
    <trip id="504" depart="2.50" from="-564865636#0" to="-4082596#3"/>
    <trip id="0" depart="3.00" from="-564865636#0" to="100077167#2"/>
    <trip id="3" depart="3.50" from="542471105#7" to="-303982846#0"/>
    <trip id="5" depart="5.00" from="-45114498#3" to="240228802#4"/>
    <trip id="6" depart="6.00" from="-155313766#4" to="-4370987"/>
    <trip id="7" depart="7.00" from="4253952#3" to="297206317#1"/>
    <trip id="8" depart="8.00" from="-45114498#3" to="38325238"/>
    <trip id="9" depart="9.00" from="462641800#0" to="-145344750#2"/>
    <trip id="10" depart="10.00" from="45114498#5" to="4259366#1"/>
    <trip id="11" depart="11.00" from="113081330" to="-4254109"/>
    <trip id="12" depart="12.00" from="753458070#1" to="139732196#0"/>
    <trip id="13" depart="13.00" from="-320718063#1" to="-320718063#3"/>
    <trip id="14" depart="14.00" from="49797408#1" to="39547935#9"/>
    <trip id="15" depart="15.00" from="45114498#6" to="4266580"/>
    <trip id="16" depart="16.00" from="267123480#0" to="777563012#3"/>
    <trip id="17" depart="17.00" from="183056157#0" to="303982852#1"/>
    <trip id="18" depart="18.00" from="492451006#0" to="419357197"/>
    <trip id="19" depart="19.00" from="498958812#1" to="349937184#1"/>
    <trip id="20" depart="20.00" from="4259366#2" to="-220019917#0"/>
    <trip id="21" depart="21.00" from="-48046844" to="-645099809#0"/>
    <trip id="22" depart="22.00" from="-256484838#3" to="-492451006#2"/>
    <trip id="23" depart="23.00" from="-349937184#0" to="-557185007#0"/>
    <trip id="24" depart="24.00" from="424889275#0" to="155313766#4"/>
    <trip id="25" depart="25.00" from="155313766#4" to="-4382814#1"/>
    <trip id="27" depart="27.00" from="4253952#2" to="4082558#0"/>
    <trip id="28" depart="28.00" from="-4258096#1" to="4266580"/>
    <trip id="30" depart="30.00" from="88334956" to="4253951"/>
    <trip id="31" depart="31.00" from="303982854#0" to="4259359#1"/>
    <trip id="32" depart="32.00" from="492451006#7" to="4370987"/>
    <trip id="33" depart="33.00" from="-483872216" to="-195406732#0"/>
    <trip id="34" depart="34.00" from="-777563012#3" to="-542471105#4"/>
    <trip id="35" depart="35.00" from="-4382813#5" to="675668365"/>
    <trip id="36" depart="36.00" from="515540040" to="-777563012#4"/>
    <trip id="37" depart="37.00" from="4253954#0" to="200596450#8"/>
    <trip id="38" depart="38.00" from="585735067" to="23013973"/>
    <trip id="40" depart="40.00" from="318825723#2" to="-53876143"/>
    <trip id="41" depart="41.00" from="349937184#1" to="547238377#1"/>
    <trip id="42" depart="42.00" from="200596450#5" to="-45114498#5"/>
    <trip id="44" depart="44.00" from="-303982846#2" to="-220019917#0"/>
    <trip id="45" depart="45.00" from="-38325238" to="424889275#0"/>
    <trip id="46" depart="46.00" from="4382813#3" to="211489821#3"/>
    <trip id="47" depart="47.00" from="-230501416#1" to="199200283"/>
    <trip id="48" depart="48.00" from="948695517" to="267213247#2"/>
    <trip id="49" depart="49.00" from="777563012#3" to="507442568#0"/>
    <trip id="50" depart="50.00" from="-148377822#2" to="4260266#2"/>
    <trip id="51" depart="51.00" from="4258085#6" to="288506479#1"/>
    <trip id="53" depart="53.00" from="-39093506#0" to="220019917#0"/>
    <trip id="54" depart="54.00" from="2190803" to="738386048"/>
    <trip id="55" depart="55.00" from="515540040" to="-53876143"/>
    <trip id="56" depart="56.00" from="230503366#1" to="-4259366#2"/>
    <trip id="57" depart="57.00" from="575394078" to="507959019"/>
    <trip id="58" depart="58.00" from="-647037416#0" to="4253931#1"/>
    <trip id="59" depart="59.00" from="39547935#9" to="-4254108"/>
    <trip id="60" depart="60.00" from="4360035#1" to="288506479#1"/>
    <trip id="61" depart="61.00" from="4370987" to="267213404#1"/>
    <trip id="62" depart="62.00" from="-113081330" to="-920415847"/>
    <trip id="63" depart="63.00" from="-155313766#3" to="647037414#3"/>
    <trip id="64" depart="64.00" from="524789887" to="492451006#5"/>
    <trip id="65" depart="65.00" from="-753458070#1" to="-2263981#8"/>
    <trip id="66" depart="66.00" from="524789887" to="68883405#0"/>
    <trip id="67" depart="67.00" from="-300869140" to="230503557#1"/>
    <trip id="68" depart="68.00" from="-230503366#1" to="4360035#1"/>
    <trip id="69" depart="69.00" from="4360037" to="-419359922#0"/>
    <trip id="70" depart="70.00" from="2263981#7" to="303982846#1"/>
    <trip id="73" depart="73.00" from="267213404#1" to="4266580"/>
    <trip id="74" depart="74.00" from="-4370987" to="-777563012#3"/>
    <trip id="75" depart="75.00" from="948685540" to="4253954#1"/>
    <trip id="77" depart="77.00" from="-39547935#9" to="-48046844"/>
    <trip id="78" depart="78.00" from="109393880" to="38325238"/>
    <trip id="79" depart="79.00" from="-490512547#1" to="-45114498#6"/>
    <trip id="80" depart="80.00" from="-230503366#1" to="424889275#0"/>
    <trip id="81" depart="81.00" from="-483872216" to="564865636#0"/>
    <trip id="82" depart="82.00" from="498958807#1" to="-237462806#1"/>
    <trip id="83" depart="83.00" from="-492451006#5" to="4256797"/>
    <trip id="84" depart="84.00" from="-4480717#2" to="-4244999#2"/>
    <trip id="86" depart="86.00" from="2263981#5" to="4373939"/>
    <trip id="87" depart="87.00" from="45114498#6" to="-4268555#2"/>
    <trip id="88" depart="88.00" from="-320718063#3" to="217573432"/>
    <trip id="89" depart="89.00" from="208169795#0" to="230500562"/>
    <trip id="90" depart="90.00" from="4260281#1" to="4258085#6"/>
    <trip id="91" depart="91.00" from="828837334" to="-320718063#4"/>
    <trip id="92" depart="92.00" from="200596451#0" to="140340149#0"/>
    <trip id="93" depart="93.00" from="498958812#1" to="-49798175"/>
    <trip id="94" depart="94.00" from="-4259407#3" to="2263981#2"/>
    <trip id="96" depart="96.00" from="-49797408#2" to="645099809#0"/>
    <trip id="97" depart="97.00" from="215065448#1" to="507442568#0"/>
    <trip id="98" depart="98.00" from="300869142#1" to="-2263981#2"/>
    <trip id="100" depart="100.00" from="777563012#3" to="647037412#0"/>
    <trip id="101" depart="101.00" from="49797408#4" to="-4258088#0"/>
    <trip id="102" depart="102.00" from="230500556" to="-45114498#3"/>
    <trip id="103" depart="103.00" from="200596450#8" to="-2263981#8"/>
    <trip id="104" depart="104.00" from="183056157#0" to="838933552#0"/>
    <trip id="108" depart="108.00" from="303982854#0" to="4259681"/>
    <trip id="109" depart="109.00" from="-4253954#0" to="-647037417#0"/>
    <trip id="110" depart="110.00" from="777563012#3" to="349937184#3"/>
    <trip id="111" depart="111.00" from="2731434#3" to="4358431"/>
    <trip id="112" depart="112.00" from="-2263981#7" to="35085535#3"/>
    <trip id="113" depart="113.00" from="230503367" to="498185199#0"/>
    <trip id="114" depart="114.00" from="-4254109" to="753458070#1"/>
    <trip id="115" depart="115.00" from="-256484838#3" to="-4259407#0"/>
    <trip id="116" depart="116.00" from="38325238" to="4258088#0"/>
    <trip id="117" depart="117.00" from="-492451006#1" to="-39547935#9"/>
    <trip id="118" depart="118.00" from="542471105#3" to="-49797408#2"/>
    <trip id="119" depart="119.00" from="38325238" to="419359922#0"/>
    <trip id="121" depart="121.00" from="239318974#3" to="647037417#1"/>
    <trip id="123" depart="123.00" from="-492451006#5" to="200596450#8"/>
    <trip id="124" depart="124.00" from="4256534#0" to="-670633895#2"/>
    <trip id="125" depart="125.00" from="-777563012#3" to="4358454#0"/>
    <trip id="126" depart="126.00" from="-237462806#1" to="23013973"/>
    <trip id="128" depart="128.00" from="-237462806#2" to="-45114498#3"/>
    <trip id="131" depart="131.00" from="155313766#4" to="-4254113#1"/>
    <trip id="132" depart="132.00" from="492451006#5" to="4259369#0"/>
    <trip id="133" depart="133.00" from="406370787#1" to="88334956"/>
    <trip id="134" depart="134.00" from="4253953#2" to="-145344750#2"/>
    <trip id="135" depart="135.00" from="475336895#0" to="-670633895#0"/>
    <trip id="136" depart="136.00" from="4254108" to="675336438#0"/>
    <trip id="137" depart="137.00" from="-4244999#2" to="-39547935#7"/>
    <trip id="138" depart="138.00" from="-349937184#7" to="303982852#4"/>
    <trip id="139" depart="139.00" from="-542471105#4" to="406370787#0"/>
    <trip id="140" depart="140.00" from="4259605" to="-4373939"/>
    <trip id="141" depart="141.00" from="424889275#0" to="-53876143"/>
    <trip id="142" depart="142.00" from="230500846" to="564865636#0"/>
    <trip id="143" depart="143.00" from="49796159#0" to="-320718063#2"/>
    <trip id="144" depart="144.00" from="208169795#0" to="-547238377#1"/>
    <trip id="145" depart="145.00" from="-139732196#7" to="4369049#2"/>
    <trip id="146" depart="146.00" from="424889275#0" to="-53638574"/>
    <trip id="147" depart="147.00" from="4356098#0" to="303982852#1"/>
    <trip id="148" depart="148.00" from="211489807#2" to="-148377822#0"/>
    <trip id="149" depart="149.00" from="-238782091#1" to="53876143"/>
    <trip id="150" depart="150.00" from="557185007#1" to="300869140"/>
    <trip id="151" depart="151.00" from="492451006#5" to="349937186#3"/>
    <trip id="152" depart="152.00" from="-4253952#2" to="-419359922#0"/>
    <trip id="153" depart="153.00" from="-753458070#1" to="547238377#1"/>
    <trip id="154" depart="154.00" from="4480717#2" to="507442568#0"/>
    <trip id="155" depart="155.00" from="547238377#0" to="-4382814#2"/>
    <trip id="156" depart="156.00" from="-49796165" to="-349937184#3"/>
    <trip id="158" depart="158.00" from="200596577" to="419359922#0"/>
    <trip id="159" depart="159.00" from="-4253954#0" to="647037414#4"/>
    <trip id="160" depart="160.00" from="507442568#0" to="777563012#7"/>
    <trip id="161" depart="161.00" from="462641800#1" to="53876143"/>
    <trip id="164" depart="164.00" from="45114498#3" to="507442568#1"/>
    <trip id="165" depart="165.00" from="462641800#1" to="-542471105#1"/>
    <trip id="166" depart="166.00" from="4373939" to="-38325238"/>
    <trip id="167" depart="167.00" from="507934076" to="498958813#0"/>
    <trip id="168" depart="168.00" from="-45114498#5" to="48046843"/>
    <trip id="170" depart="170.00" from="4382814#3" to="-492451006#0"/>
    <trip id="171" depart="171.00" from="-155313766#4" to="-4358441"/>
    <trip id="172" depart="172.00" from="-920237507" to="507442568#1"/>
    <trip id="173" depart="173.00" from="777563012#0" to="-564865636#0"/>
    <trip id="174" depart="174.00" from="4253267" to="200598186"/>
    <trip id="175" depart="175.00" from="817971870" to="288506479#1"/>
    <trip id="176" depart="176.00" from="647037418#0" to="-39547935#7"/>
    <trip id="177" depart="177.00" from="777563012#3" to="-4259366#2"/>
    <trip id="178" depart="178.00" from="776630483#0" to="-542471105#1"/>
    <trip id="179" depart="179.00" from="-377346227#0" to="220019917#0"/>
    <trip id="181" depart="181.00" from="39547935#7" to="256389404#0"/>
    <trip id="182" depart="182.00" from="195542578" to="349937184#1"/>
    <trip id="183" depart="183.00" from="-498958802#3" to="4259407#0"/>
    <trip id="184" depart="184.00" from="-118705201" to="647037412#0"/>
    <trip id="185" depart="185.00" from="267213247#2" to="4260259"/>
    <trip id="186" depart="186.00" from="4356098#0" to="4258085#3"/>
    <trip id="187" depart="187.00" from="155313766#3" to="-230503366#1"/>
    <trip id="188" depart="188.00" from="4254108" to="100077167#3"/>
    <trip id="189" depart="189.00" from="-777563012#0" to="49797415#3"/>
    <trip id="190" depart="190.00" from="4259616#0" to="-675668365"/>
    <trip id="192" depart="192.00" from="200596451#0" to="-647037417#0"/>
    <trip id="193" depart="193.00" from="-419359922#0" to="211489816"/>
    <trip id="194" depart="194.00" from="656455801" to="4258091#0"/>
    <trip id="195" depart="195.00" from="552868819" to="4082596#5"/>
    <trip id="196" depart="196.00" from="-647037417#0" to="300869141#2"/>
    <trip id="197" depart="197.00" from="-1008674254" to="-615092345"/>
    <trip id="198" depart="198.00" from="211489808#1" to="349937184#4"/>
    <trip id="199" depart="199.00" from="4253953#2" to="230500556"/>
    <trip id="200" depart="200.00" from="211489821#3" to="-45114498#3"/>
    <trip id="201" depart="201.00" from="2263981#5" to="557185046"/>
    <trip id="202" depart="202.00" from="4480717#2" to="-4259359#0"/>
    <trip id="203" depart="203.00" from="-294010666#2" to="256484838#6"/>
    <trip id="204" depart="204.00" from="4244999#2" to="113081330"/>
    <trip id="205" depart="205.00" from="480094742" to="4358441"/>
    <trip id="206" depart="206.00" from="4256534#0" to="-48046844"/>
    <trip id="207" depart="207.00" from="-4360037" to="-155313766#4"/>
    <trip id="208" depart="208.00" from="-492451006#5" to="230502391#0"/>
    <trip id="209" depart="209.00" from="49797415#1" to="-238782090#1"/>
    <trip id="211" depart="211.00" from="-4356148" to="4259363"/>
    <trip id="212" depart="212.00" from="230502391#0" to="-49796159#0"/>
    <trip id="213" depart="213.00" from="4253972#0" to="-145344750#1"/>
    <trip id="214" depart="214.00" from="4358431" to="4369048#1"/>
    <trip id="215" depart="215.00" from="-349937184#6" to="216997282"/>
    <trip id="216" depart="216.00" from="-4259359#3" to="738386049#0"/>
    <trip id="217" depart="217.00" from="237462806#1" to="-2263981#2"/>
    <trip id="218" depart="218.00" from="-49796165" to="49797415#3"/>
    <trip id="219" depart="219.00" from="220019917#2" to="45114498#4"/>
    <trip id="220" depart="220.00" from="4254113#1" to="88334956"/>
    <trip id="221" depart="221.00" from="38325238" to="72140279#0"/>
    <trip id="222" depart="222.00" from="542471105#5" to="4082558#2"/>
    <trip id="223" depart="223.00" from="4259616#0" to="240228802#4"/>
    <trip id="224" depart="224.00" from="492451006#1" to="300869141#2"/>
    <trip id="225" depart="225.00" from="542471107#0" to="4356148"/>
    <trip id="226" depart="226.00" from="2263981#7" to="-524789887"/>
    <trip id="227" depart="227.00" from="-492451006#8" to="4253584"/>
    <trip id="229" depart="229.00" from="419359922#0" to="-547238377#0"/>
    <trip id="230" depart="230.00" from="-240228802#4" to="-585735067"/>
    <trip id="231" depart="231.00" from="-542471105#2" to="-88334956"/>
    <trip id="232" depart="232.00" from="267213404#1" to="-424889275#2"/>
    <trip id="233" depart="233.00" from="-492451006#0" to="4259363"/>
    <trip id="234" depart="234.00" from="4259367#0" to="-230502391#0"/>
    <trip id="235" depart="235.00" from="200596577" to="288506479#1"/>
    <trip id="237" depart="237.00" from="208169450" to="564865636#0"/>
    <trip id="238" depart="238.00" from="349937184#1" to="4259363"/>
    <trip id="239" depart="239.00" from="498185199#1" to="4360147"/>
    <trip id="240" depart="240.00" from="183056157#1" to="-145344750#1"/>
    <trip id="241" depart="241.00" from="148377822#1" to="4358455"/>
    <trip id="242" depart="242.00" from="49798170" to="72140279#5"/>
    <trip id="244" depart="244.00" from="297206317#1" to="39547935#9"/>
    <trip id="245" depart="245.00" from="-45114498#4" to="-45114498#5"/>
    <trip id="246" depart="246.00" from="211489809" to="-155451007#0"/>
    <trip id="247" depart="247.00" from="1008674253" to="4258091#1"/>
    <trip id="248" depart="248.00" from="200596577" to="-4258085#6"/>
    <trip id="249" depart="249.00" from="2263981#0" to="-419359922#0"/>
    <trip id="250" depart="250.00" from="4082596#5" to="-155313766#4"/>
    <trip id="251" depart="251.00" from="200596450#0" to="320718063#3"/>
    <trip id="252" depart="252.00" from="-155313766#4" to="4253952#2"/>
    <trip id="253" depart="253.00" from="-424889275#0" to="230500145"/>
    <trip id="254" depart="254.00" from="-2263981#0" to="195542578"/>
    <trip id="255" depart="255.00" from="-4382814#1" to="100015720#1"/>
    <trip id="257" depart="257.00" from="4358431" to="492451006#5"/>
    <trip id="258" depart="258.00" from="-49798175" to="-2731434#3"/>
    <trip id="259" depart="259.00" from="-155313766#3" to="288506479#1"/>
    <trip id="261" depart="261.00" from="4253952#3" to="437201225#1"/>
    <trip id="262" depart="262.00" from="4253952#5" to="4358456#0"/>
    <trip id="263" depart="263.00" from="71507464#0" to="-4370987"/>
    <trip id="264" depart="264.00" from="-155313766#3" to="-4253954#0"/>
    <trip id="265" depart="265.00" from="-4082596#5" to="4256797"/>
    <trip id="266" depart="266.00" from="320718063#2" to="-45114498#4"/>
    <trip id="267" depart="267.00" from="4259363" to="4362706"/>
    <trip id="268" depart="268.00" from="-4258085#6" to="4082556"/>
    <trip id="269" depart="269.00" from="4356148" to="-39547935#7"/>
    <trip id="270" depart="270.00" from="480094743#1" to="776630483#1"/>
    <trip id="271" depart="271.00" from="-377346227#0" to="-155313766#4"/>
    <trip id="272" depart="272.00" from="-777563012#0" to="4258091#0"/>
    <trip id="273" depart="273.00" from="753458070#1" to="200596451#0"/>
    <trip id="274" depart="274.00" from="4259407#1" to="-240228802#4"/>
    <trip id="275" depart="275.00" from="4259359#3" to="424889275#0"/>
    <trip id="276" depart="276.00" from="-349937184#1" to="4369410#0"/>
    <trip id="277" depart="277.00" from="49797415#1" to="39547935#8"/>
    <trip id="278" depart="278.00" from="-39547935#9" to="828837334"/>
    <trip id="279" depart="279.00" from="437141999" to="148377822#1"/>
    <trip id="280" depart="280.00" from="211489807#2" to="166758989"/>
    <trip id="281" depart="281.00" from="230503557#0" to="145344750#2"/>
    <trip id="282" depart="282.00" from="49797415#1" to="483872217#0"/>
    <trip id="283" depart="283.00" from="-349937184#4" to="753458070#1"/>
    <trip id="284" depart="284.00" from="424889275#0" to="492451006#1"/>
    <trip id="285" depart="285.00" from="4259367#0" to="220019917#0"/>
    <trip id="286" depart="286.00" from="4266580" to="776630483#1"/>
    <trip id="287" depart="287.00" from="-542471105#1" to="462641800#1"/>
    <trip id="288" depart="288.00" from="267213247#2" to="230503557#0"/>
    <trip id="289" depart="289.00" from="211489809" to="4266580"/>
    <trip id="290" depart="290.00" from="-53876143" to="49798450#0"/>
    <trip id="291" depart="291.00" from="492451006#1" to="-300869141#2"/>
    <trip id="293" depart="293.00" from="2263976#0" to="4082558#1"/>
    <trip id="294" depart="294.00" from="183056157#0" to="-155451007#0"/>
    <trip id="295" depart="295.00" from="49797415#3" to="-4259367#2"/>
    <trip id="296" depart="296.00" from="-4382814#1" to="45114498#3"/>
    <trip id="297" depart="297.00" from="113081330" to="53876136"/>
    <trip id="298" depart="298.00" from="4259363" to="-547238377#1"/>
    <trip id="299" depart="299.00" from="-148377822#1" to="68883407"/>
    <trip id="300" depart="300.00" from="-300869140" to="4260266#1"/>
    <trip id="301" depart="301.00" from="230500846" to="4358461#2"/>
    <trip id="302" depart="302.00" from="4259359#3" to="4253952#5"/>
    <trip id="303" depart="303.00" from="230500846" to="4382814#3"/>
    <trip id="304" depart="304.00" from="-320718063#2" to="-474368742"/>
    <trip id="305" depart="305.00" from="4259359#3" to="-776630483#1"/>
    <trip id="306" depart="306.00" from="34428361#1" to="230501417#1"/>
    <trip id="307" depart="307.00" from="256389404#0" to="216998718"/>
    <trip id="308" depart="308.00" from="4356147" to="100077167#3"/>
    <trip id="309" depart="309.00" from="4259366#0" to="-542471105#8"/>
    <trip id="310" depart="310.00" from="-49797408#6" to="-39547935#9"/>
    <trip id="311" depart="311.00" from="-4268555#2" to="-39547935#9"/>
    <trip id="312" depart="312.00" from="260331568" to="4360035#3"/>
    <trip id="313" depart="313.00" from="-4259367#2" to="-45114498#3"/>
    <trip id="314" depart="314.00" from="230500148#0" to="4260266#4"/>
    <trip id="316" depart="316.00" from="-557185007#1" to="-349937184#1"/>
    <trip id="317" depart="317.00" from="-431794367#0" to="-492451006#0"/>
    <trip id="318" depart="318.00" from="-4259360" to="-155313766#0"/>
    <trip id="319" depart="319.00" from="256484838#3" to="-547238377#0"/>
    <trip id="320" depart="320.00" from="777563012#5" to="310913231"/>
    <trip id="321" depart="321.00" from="4259362" to="-419359922#0"/>
    <trip id="322" depart="322.00" from="507442569#1" to="23485014"/>
    <trip id="323" depart="323.00" from="507948588" to="332620704#2"/>
    <trip id="324" depart="324.00" from="2263981#2" to="225025827"/>
    <trip id="325" depart="325.00" from="-4259367#2" to="-2263981#2"/>
    <trip id="326" depart="326.00" from="659406290" to="230502962#0"/>
    <trip id="327" depart="327.00" from="48046844" to="200598186"/>
    <trip id="328" depart="328.00" from="-238782090#1" to="424889275#0"/>
    <trip id="329" depart="329.00" from="-2263981#3" to="-4253953#0"/>
    <trip id="330" depart="330.00" from="318835972#1" to="-753458070#1"/>
    <trip id="331" depart="331.00" from="935777936" to="-39547935#9"/>
    <trip id="332" depart="332.00" from="4360035#3" to="406370787#1"/>
    <trip id="333" depart="333.00" from="437877474" to="-490512547#0"/>
    <trip id="334" depart="334.00" from="239318974#3" to="2263981#3"/>
    <trip id="335" depart="335.00" from="211489821#3" to="507442568#0"/>
    <trip id="336" depart="336.00" from="901000130#1" to="-776630483#0"/>
    <trip id="337" depart="337.00" from="4082588#2" to="4082558#0"/>
    <trip id="338" depart="338.00" from="43365536" to="68883405#1"/>
    <trip id="339" depart="339.00" from="-4373939" to="-4480717#2"/>
    <trip id="340" depart="340.00" from="4254101#0" to="-4254113#1"/>
    <trip id="341" depart="341.00" from="-4259359#3" to="-240228802#0"/>
    <trip id="342" depart="342.00" from="-139732196#3" to="2263981#3"/>
    <trip id="343" depart="343.00" from="377346227#1" to="-647027040"/>
    <trip id="344" depart="344.00" from="-492451006#0" to="4259407#0"/>
    <trip id="345" depart="345.00" from="4259366#0" to="2263981#7"/>
    <trip id="346" depart="346.00" from="4258096#1" to="645099809#1"/>
    <trip id="347" depart="347.00" from="4373940" to="4244999#0"/>
    <trip id="348" depart="348.00" from="4254106" to="647037417#0"/>
    <trip id="350" depart="350.00" from="4253952#2" to="564865637"/>
    <trip id="351" depart="351.00" from="490512547#1" to="-237462806#1"/>
    <trip id="352" depart="352.00" from="-4258085#6" to="-777563012#0"/>
    <trip id="354" depart="354.00" from="-564865637" to="-413047211"/>
    <trip id="355" depart="355.00" from="4259359#0" to="4259366#2"/>
    <trip id="356" depart="356.00" from="673956940" to="238782091#1"/>
    <trip id="357" depart="357.00" from="230501416#1" to="-260331568"/>
    <trip id="358" depart="358.00" from="-216998718" to="2190803"/>
    <trip id="359" depart="359.00" from="-777565028#1" to="-498958802#1"/>
    <trip id="360" depart="360.00" from="-310913231" to="757744789#0"/>
    <trip id="361" depart="361.00" from="492451006#5" to="349937184#0"/>
    <trip id="363" depart="363.00" from="4256534#0" to="-542471105#7"/>
    <trip id="364" depart="364.00" from="-216998718" to="4358461#1"/>
    <trip id="365" depart="365.00" from="2263981#3" to="4253972#0"/>
    <trip id="366" depart="366.00" from="585735068#1" to="-4259367#2"/>
    <trip id="367" depart="367.00" from="349937184#3" to="4253560#2"/>
    <trip id="368" depart="368.00" from="230500846" to="-320718063#1"/>
    <trip id="369" depart="369.00" from="145344751#0" to="109393880"/>
    <trip id="370" depart="370.00" from="4254981" to="498958812#1"/>
    <trip id="371" depart="371.00" from="-920415847" to="4259362"/>
    <trip id="372" depart="372.00" from="-564865636#1" to="68543461"/>
    <trip id="373" depart="373.00" from="474368743#1" to="303982846#1"/>
    <trip id="374" depart="374.00" from="220019917#0" to="-777563012#4"/>
    <trip id="375" depart="375.00" from="-777565028#1" to="777563012#3"/>
    <trip id="376" depart="376.00" from="200596577" to="256484838#3"/>
    <trip id="377" depart="377.00" from="88334956" to="4254108"/>
    <trip id="378" depart="378.00" from="2731434#4" to="210500025#2"/>
    <trip id="379" depart="379.00" from="-4259407#0" to="155313766#3"/>
    <trip id="380" depart="380.00" from="4358454#0" to="4244999#1"/>
    <trip id="382" depart="382.00" from="300869141#1" to="647037413"/>
    <trip id="383" depart="383.00" from="211489809" to="4259366#1"/>
    <trip id="384" depart="384.00" from="-39547935#9" to="777563012#3"/>
    <trip id="385" depart="385.00" from="39547935#9" to="-492451006#5"/>
    <trip id="386" depart="386.00" from="-4254109" to="303982846#2"/>
    <trip id="387" depart="387.00" from="303982846#1" to="-320718063#2"/>
    <trip id="388" depart="388.00" from="920237507" to="585735068#1"/>
    <trip id="390" depart="390.00" from="492451006#1" to="237462806#1"/>
    <trip id="391" depart="391.00" from="4259605" to="245384521#0"/>
    <trip id="392" depart="392.00" from="-542471105#6" to="492451006#5"/>
    <trip id="393" depart="393.00" from="817967123" to="-49796159#0"/>
    <trip id="394" depart="394.00" from="303982846#0" to="200596105#1"/>
    <trip id="395" depart="395.00" from="585735070" to="245384521#0"/>
    <trip id="397" depart="397.00" from="-542471105#8" to="4382813#5"/>
    <trip id="399" depart="399.00" from="230506722#0" to="482974060"/>
    <trip id="400" depart="400.00" from="-557185007#0" to="-647037418#1"/>
    <trip id="402" depart="402.00" from="230500846" to="-4253952#5"/>
    <trip id="403" depart="403.00" from="267213247#2" to="148377820"/>
    <trip id="404" depart="404.00" from="303982846#1" to="294010666#2"/>
    <trip id="405" depart="405.00" from="220019917#0" to="-920237501"/>
    <trip id="406" depart="406.00" from="-4259407#0" to="4259363"/>
    <trip id="408" depart="408.00" from="436945579#1" to="-217573432"/>
    <trip id="409" depart="409.00" from="4356104" to="4259369#1"/>
    <trip id="410" depart="410.00" from="462641800#3" to="200596105#6"/>
    <trip id="411" depart="411.00" from="4254108" to="482974060"/>
    <trip id="412" depart="412.00" from="817971870" to="23715308#0"/>
    <trip id="413" depart="413.00" from="-211489816" to="239318974#2"/>
    <trip id="414" depart="414.00" from="35085535#1" to="507948595#1"/>
    <trip id="415" depart="415.00" from="507959019" to="225025827"/>
    <trip id="416" depart="416.00" from="245384251" to="2263981#8"/>
    <trip id="418" depart="418.00" from="4253954#0" to="-4254108"/>
    <trip id="419" depart="419.00" from="2263981#2" to="777563012#3"/>
    <trip id="420" depart="420.00" from="109393880" to="4259362"/>
    <trip id="421" depart="421.00" from="4253952#3" to="49798450#0"/>
    <trip id="422" depart="422.00" from="49797415#4" to="507442567"/>
    <trip id="423" depart="423.00" from="183056157#1" to="-777565028#0"/>
    <trip id="424" depart="424.00" from="4259616#0" to="4358790"/>
    <trip id="425" depart="425.00" from="507948582" to="-211489816"/>
    <trip id="426" depart="426.00" from="-230503366#0" to="424889275#0"/>
    <trip id="427" depart="427.00" from="585735069#0" to="974786028#2"/>
    <trip id="428" depart="428.00" from="4356147" to="2198816"/>
    <trip id="429" depart="429.00" from="-320718063#3" to="4253267"/>
    <trip id="430" depart="430.00" from="507948587#0" to="2263971#0"/>
    <trip id="431" depart="431.00" from="4259360" to="564865636#0"/>
    <trip id="432" depart="432.00" from="-2190803" to="45114498#3"/>
    <trip id="433" depart="433.00" from="-645099808" to="184276459"/>
    <trip id="434" depart="434.00" from="-4253951" to="267215482#1"/>
    <trip id="435" depart="435.00" from="320718063#3" to="4382814#2"/>
    <trip id="436" depart="436.00" from="-4258088#0" to="-256484838#3"/>
    <trip id="437" depart="437.00" from="507934071" to="419359922#0"/>
    <trip id="438" depart="438.00" from="-492451006#5" to="585735068#1"/>
    <trip id="439" depart="439.00" from="-4253560#3" to="230500144#0"/>
    <trip id="440" depart="440.00" from="-49798450#0" to="-507934068#0"/>
    <trip id="441" depart="441.00" from="-148377822#0" to="45114498#6"/>
    <trip id="442" depart="442.00" from="547238377#1" to="4258091#0"/>
    <trip id="443" depart="443.00" from="-4254109" to="225025827"/>
    <trip id="444" depart="444.00" from="145344750#1" to="377367118"/>
    <trip id="445" depart="445.00" from="424889275#1" to="216997282"/>
    <trip id="446" depart="446.00" from="-49797408#2" to="49797408#4"/>
    <trip id="447" depart="447.00" from="-4360037" to="200596105#3"/>
    <trip id="448" depart="448.00" from="230500145" to="-492451006#5"/>