<?xml version="1.0" encoding="UTF-8"?>

<!-- generated on 2022-01-07 12:18:32 by Eclipse SUMO netedit Version 1.11.0
<configuration xmlns:xsi="http://www.w3.org/2001/XMLSchema-instance" xsi:noNamespaceSchemaLocation="http://sumo.dlr.de/xsd/netconvertConfiguration.xsd">

    <output>
        <output-file value="C:\Users\NickSolly\Django\zf2022\maps\Highway\Highway.net.xml"/>
    </output>

    <processing>
        <offset.disable-normalization value="true"/>
    </processing>

    <junctions>
        <no-turnarounds value="true"/>
    </junctions>

    <report>
        <aggregate-warnings value="5"/>
    </report>

</configuration>
-->

<net version="1.9" junctionCornerDetail="5" limitTurnSpeed="5.50" xmlns:xsi="http://www.w3.org/2001/XMLSchema-instance" xsi:noNamespaceSchemaLocation="http://sumo.dlr.de/xsd/net_file.xsd">

    <location netOffset="0.00,0.00" convBoundary="-150.00,30.00,800.00,30.00" origBoundary="10000000000.00,10000000000.00,-10000000000.00,-10000000000.00" projParameter="!"/>

    <edge id="E0" from="left1" to="left2" priority="-1">
        <lane id="E0_0" index="0" speed="13.89" length="50" shape="-150.00,22.99 -100.00,22.99"/>
        <lane id="E0_1" index="1" speed="13.89" length="50" shape="-150.00,26.19 -100.00,26.19"/>
    </edge>
    <edge id="E1" from="left2" to="right1" priority="-1">
        <lane id="E1_0" index="0" speed="13.89" length="850" shape="-100.00,22.99 750.00,22.99"/>
        <lane id="E1_1" index="1" speed="13.89" length="850" shape="-100.00,26.19 750.00,26.19"/>
    </edge>
    <edge id="E2" from="right1" to="right2" priority="-1">
        <lane id="E2_0" index="0" speed="13.89" length="50" shape="750.00,22.99 800.00,22.99"/>
        <lane id="E2_1" index="1" speed="13.89" length="50" shape="750.00,26.19 800.00,26.19"/>
    </edge>

    <junction id="left1" type="dead_end" x="-150.00" y="30.00" incLanes="E0_0 E0_1" intLanes="" shape="-150.00,30.00 -150.00,21.39"/>
    <junction id="left2" type="priority" x="-100.00" y="30.00" incLanes="E0_0 E0_1" intLanes="" shape="-100.00,30.00 -100.00,21.39">
        <request index="0" response="00" foes="00" cont="0"/>
        <request index="1" response="00" foes="00" cont="0"/>
    </junction>
    <junction id="right1" type="priority" x="750.00" y="30.00" incLanes="E0_0 E0_1" intLanes="" shape="750.00,30.00 750.00,21.39">
        <request index="0" response="00" foes="00" cont="0"/>
        <request index="1" response="00" foes="00" cont="0"/>
    </junction>
    <junction id="right2" type="dead_end" x="800.00" y="30.00" incLanes="E0_0 E0_1" intLanes="" shape="800.00,21.39 800.00,30.00"/>

</net>
