<?xml version="1.0" encoding="UTF-8"?>

<!-- generated on 2022-01-07 14:12:46 by Eclipse SUMO netedit Version 1.11.0
<configuration xmlns:xsi="http://www.w3.org/2001/XMLSchema-instance" xsi:noNamespaceSchemaLocation="http://sumo.dlr.de/xsd/netconvertConfiguration.xsd">

    <input>
        <sumo-net-file value="C:\Users\ageorge2\Desktop\Work\zf2022-initial-updates%20(1)\zf2022-initial-updates\maps\FutureBlackwell\FutureBlackwell.net.xml"/>
    </input>

    <output>
        <output-file value="C:\Users\ageorge2\Desktop\Work\zf2022-initial-updates%20(1)\zf2022-initial-updates\maps\FutureBlackwell\FutureBlackwell.net.xml"/>
        <output.street-names value="true"/>
    </output>

    <processing>
        <geometry.min-radius.fix.railways value="false"/>
        <geometry.max-grade.fix value="false"/>
        <offset.disable-normalization value="true"/>
        <lefthand value="true"/>
    </processing>

    <junctions>
        <no-turnarounds value="true"/>
        <junctions.corner-detail value="5"/>
        <junctions.limit-turn-speed value="5.5"/>
        <rectangular-lane-cut value="false"/>
    </junctions>

    <pedestrian>
        <walkingareas value="false"/>
    </pedestrian>

    <report>
        <aggregate-warnings value="5"/>
    </report>

</configuration>
-->

<net version="1.9" junctionCornerDetail="5" lefthand="true" limitTurnSpeed="5.50" xmlns:xsi="http://www.w3.org/2001/XMLSchema-instance" xsi:noNamespaceSchemaLocation="http://sumo.dlr.de/xsd/net_file.xsd">

    <location netOffset="-707223.42,-5709593.93" convBoundary="77.38,0.00,1124.15,1767.74" origBoundary="-0.013416,51.499038,0.003102,51.515108" projParameter="+proj=utm +zone=30 +ellps=WGS84 +datum=WGS84 +units=m +no_defs"/>

    <type id="highway.bridleway" priority="1" numLanes="1" speed="2.78" allow="pedestrian" oneway="1" width="2.00"/>
    <type id="highway.bus_guideway" priority="1" numLanes="1" speed="27.78" allow="bus" oneway="1"/>
    <type id="highway.cycleway" priority="1" numLanes="1" speed="8.33" allow="bicycle" oneway="0" width="1.00"/>
    <type id="highway.footway" priority="1" numLanes="1" speed="2.78" allow="pedestrian" oneway="1" width="2.00"/>
    <type id="highway.ford" priority="1" numLanes="1" speed="2.78" allow="army" oneway="0"/>
    <type id="highway.living_street" priority="3" numLanes="1" speed="2.78" disallow="tram rail_urban rail rail_electric ship" oneway="0"/>
    <type id="highway.motorway" priority="13" numLanes="2" speed="44.44" allow="private emergency authority army vip passenger hov taxi bus coach delivery truck trailer motorcycle evehicle custom1 custom2" oneway="1"/>
    <type id="highway.motorway_link" priority="12" numLanes="1" speed="22.22" allow="private emergency authority army vip passenger hov taxi bus coach delivery truck trailer motorcycle evehicle custom1 custom2" oneway="1"/>
    <type id="highway.path" priority="1" numLanes="1" speed="2.78" allow="pedestrian bicycle" oneway="1" width="2.00"/>
    <type id="highway.pedestrian" priority="1" numLanes="1" speed="2.78" allow="pedestrian" oneway="1" width="2.00"/>
    <type id="highway.primary" priority="9" numLanes="2" speed="27.78" disallow="tram rail_urban rail rail_electric ship" oneway="0"/>
    <type id="highway.primary_link" priority="8" numLanes="1" speed="22.22" disallow="tram rail_urban rail rail_electric ship" oneway="0"/>
    <type id="highway.raceway" priority="14" numLanes="2" speed="83.33" allow="vip" oneway="0"/>
    <type id="highway.residential" priority="4" numLanes="1" speed="13.89" disallow="tram rail_urban rail rail_electric ship" oneway="0"/>
    <type id="highway.secondary" priority="7" numLanes="2" speed="27.78" disallow="tram rail_urban rail rail_electric ship" oneway="0"/>
    <type id="highway.secondary_link" priority="6" numLanes="1" speed="22.22" disallow="tram rail_urban rail rail_electric ship" oneway="0"/>
    <type id="highway.service" priority="2" numLanes="1" speed="5.56" allow="pedestrian delivery bicycle" oneway="0"/>
    <type id="highway.stairs" priority="1" numLanes="1" speed="1.39" allow="pedestrian" oneway="1" width="2.00"/>
    <type id="highway.step" priority="1" numLanes="1" speed="1.39" allow="pedestrian" oneway="1" width="2.00"/>
    <type id="highway.steps" priority="1" numLanes="1" speed="1.39" allow="pedestrian" oneway="1" width="2.00"/>
    <type id="highway.tertiary" priority="6" numLanes="1" speed="22.22" disallow="tram rail_urban rail rail_electric ship" oneway="0"/>
    <type id="highway.tertiary_link" priority="5" numLanes="1" speed="22.22" disallow="tram rail_urban rail rail_electric ship" oneway="0"/>
    <type id="highway.track" priority="1" numLanes="1" speed="5.56" disallow="tram rail_urban rail rail_electric ship" oneway="0"/>
    <type id="highway.trunk" priority="11" numLanes="2" speed="27.78" disallow="pedestrian bicycle tram rail_urban rail rail_electric ship" oneway="0"/>
    <type id="highway.trunk_link" priority="10" numLanes="1" speed="22.22" disallow="pedestrian bicycle tram rail_urban rail rail_electric ship" oneway="0"/>
    <type id="highway.unclassified" priority="5" numLanes="1" speed="13.89" disallow="tram rail_urban rail rail_electric ship" oneway="0"/>
    <type id="highway.unsurfaced" priority="1" numLanes="1" speed="8.33" disallow="tram rail_urban rail rail_electric ship" oneway="0"/>
    <type id="railway.light_rail" priority="15" numLanes="1" speed="27.78" allow="rail_urban" oneway="1"/>
    <type id="railway.preserved" priority="15" numLanes="1" speed="27.78" allow="rail" oneway="1"/>
    <type id="railway.rail" priority="15" numLanes="1" speed="83.33" allow="rail rail_electric" oneway="1"/>
    <type id="railway.subway" priority="15" numLanes="1" speed="27.78" allow="rail_urban" oneway="1"/>
    <type id="railway.tram" priority="15" numLanes="1" speed="13.89" allow="tram" oneway="1"/>

    <edge id=":11060852_0" function="internal">
        <lane id=":11060852_0_0" index="0" disallow="pedestrian bicycle tram rail_urban rail rail_electric rail_fast ship" speed="13.41" length="26.87" shape="369.51,1626.40 370.43,1618.06 371.97,1612.02 373.89,1606.67 375.96,1600.44"/>
        <lane id=":11060852_0_1" index="1" disallow="pedestrian bicycle tram rail_urban rail rail_electric rail_fast ship" speed="13.41" length="27.59" shape="366.32,1626.23 367.26,1617.63 368.84,1611.36 370.80,1605.85 372.88,1599.56"/>
    </edge>
    <edge id=":11060852_2" function="internal">
        <lane id=":11060852_2_0" index="0" disallow="pedestrian bicycle tram rail_urban rail rail_electric rail_fast ship" speed="13.41" length="27.40" shape="366.32,1626.23 368.78,1598.91"/>
        <lane id=":11060852_2_1" index="1" disallow="pedestrian bicycle tram rail_urban rail rail_electric rail_fast ship" speed="13.41" length="27.40" shape="363.12,1626.06 365.58,1598.81"/>
    </edge>
    <edge id=":11130382_0" function="internal">
        <lane id=":11130382_0_0" index="0" disallow="pedestrian bicycle tram rail_urban rail rail_electric rail_fast ship" speed="13.65" length="15.27" shape="359.64,1454.96 357.98,1459.48 356.11,1462.69 353.86,1465.07 351.04,1467.09"/>
    </edge>
    <edge id=":11130382_1" function="internal">
        <lane id=":11130382_1_0" index="0" speed="13.89" length="15.16" shape="359.64,1454.96 356.09,1469.74"/>
        <lane id=":11130382_1_1" index="1" speed="13.89" length="15.16" shape="362.70,1455.89 359.18,1470.59"/>
    </edge>
    <edge id=":2014156889_0" function="internal">
        <lane id=":2014156889_0_0" index="0" disallow="pedestrian bicycle tram rail_urban rail rail_electric rail_fast ship" speed="13.41" length="0.28" shape="459.17,1148.67 459.17,1148.92"/>
        <lane id=":2014156889_0_1" index="1" disallow="pedestrian bicycle tram rail_urban rail rail_electric rail_fast ship" speed="13.41" length="0.28" shape="462.36,1148.57 462.37,1148.88"/>
    </edge>
    <edge id=":2140472412_0" function="internal">
        <lane id=":2140472412_0_0" index="0" disallow="pedestrian bicycle tram rail_urban rail rail_electric rail_fast ship" speed="13.65" length="3.35" shape="435.98,1317.17 436.53,1316.22 436.94,1315.58 437.27,1314.91 437.62,1313.88"/>
        <lane id=":2140472412_0_1" index="1" disallow="pedestrian bicycle tram rail_urban rail rail_electric rail_fast ship" speed="13.65" length="3.35" shape="433.16,1315.67 433.62,1314.89 433.96,1314.38 434.25,1313.84 434.54,1313.01"/>
    </edge>
    <edge id=":2140482757_0" function="internal">
        <lane id=":2140482757_0_0" index="0" disallow="pedestrian bicycle tram rail_urban rail rail_electric rail_fast ship" speed="13.41" length="3.30" shape="457.93,1109.98 457.97,1110.71 457.99,1111.20 457.98,1111.70 457.95,1112.43"/>
        <lane id=":2140482757_0_1" index="1" disallow="pedestrian bicycle tram rail_urban rail rail_electric rail_fast ship" speed="13.41" length="3.30" shape="457.93,1109.98 461.15,1112.58"/>
    </edge>
    <edge id=":2140482757_2" function="internal">
        <lane id=":2140482757_2_0" index="0" disallow="pedestrian bicycle tram rail_urban rail rail_electric rail_fast ship" speed="13.41" length="2.64" shape="457.93,1109.98 458.05,1112.44"/>
        <lane id=":2140482757_2_1" index="1" disallow="pedestrian bicycle tram rail_urban rail rail_electric rail_fast ship" speed="13.41" length="2.64" shape="461.12,1109.78 461.25,1112.59"/>
    </edge>
    <edge id=":2140514378_0" function="internal">
        <lane id=":2140514378_0_0" index="0" disallow="pedestrian bicycle tram rail_urban rail rail_electric rail_fast ship" speed="13.41" length="0.28" shape="391.99,1543.26 392.07,1542.96"/>
        <lane id=":2140514378_0_1" index="1" disallow="pedestrian bicycle tram rail_urban rail rail_electric rail_fast ship" speed="13.41" length="0.28" shape="388.90,1542.43 388.96,1542.18"/>
    </edge>
    <edge id=":2142198200_0" function="internal">
        <lane id=":2142198200_0_0" index="0" disallow="pedestrian bicycle tram rail_urban rail rail_electric rail_fast ship" speed="13.41" length="0.23" shape="370.89,1536.01 370.89,1535.72"/>
        <lane id=":2142198200_0_1" index="1" disallow="pedestrian bicycle tram rail_urban rail rail_electric rail_fast ship" speed="13.41" length="0.23" shape="367.69,1535.90 367.69,1535.73"/>
    </edge>
    <edge id=":2464441436_0" function="internal">
        <lane id=":2464441436_0_0" index="0" disallow="pedestrian bicycle tram rail_urban rail rail_electric rail_fast ship" speed="13.41" length="0.29" shape="386.84,1562.41 386.92,1562.11"/>
        <lane id=":2464441436_0_1" index="1" disallow="pedestrian bicycle tram rail_urban rail rail_electric rail_fast ship" speed="13.41" length="0.29" shape="383.76,1561.53 383.83,1561.28"/>
    </edge>
    <edge id=":262374856_0" function="internal">
        <lane id=":262374856_0_0" index="0" disallow="tram rail_urban rail rail_electric rail_fast ship" speed="13.41" length="0.49" shape="225.23,1207.64 225.11,1208.20"/>
        <lane id=":262374856_0_1" index="1" disallow="tram rail_urban rail rail_electric rail_fast ship" speed="13.41" length="0.49" shape="228.34,1208.37 228.26,1208.77"/>
    </edge>
    <edge id=":262374856_2" function="internal">
        <lane id=":262374856_2_0" index="0" disallow="tram rail_urban rail rail_electric rail_fast ship" speed="13.41" length="0.16" shape="234.55,1209.92 234.57,1209.84"/>
        <lane id=":262374856_2_1" index="1" disallow="tram rail_urban rail rail_electric rail_fast ship" speed="13.41" length="0.16" shape="231.40,1209.35 231.45,1209.11"/>
    </edge>
    <edge id=":440394724_0" function="internal">
        <lane id=":440394724_0_0" index="0" disallow="pedestrian bicycle tram rail_urban rail rail_electric rail_fast ship" speed="13.41" length="9.43" shape="311.23,1420.52 312.08,1418.10 312.86,1416.50 313.98,1415.11 315.82,1413.32"/>
        <lane id=":440394724_0_1" index="1" disallow="pedestrian bicycle tram rail_urban rail rail_electric rail_fast ship" speed="13.41" length="9.43" shape="311.23,1420.52 311.75,1417.54 311.66,1415.27 311.96,1413.24 313.62,1410.99"/>
    </edge>
    <edge id=":440395986_0" function="internal">
        <lane id=":440395986_0_0" index="0" disallow="pedestrian bicycle tram rail_urban rail rail_electric rail_fast ship" speed="13.41" length="0.27" shape="656.49,1442.24 656.79,1442.33"/>
        <lane id=":440395986_0_1" index="1" disallow="pedestrian bicycle tram rail_urban rail rail_electric rail_fast ship" speed="13.41" length="0.27" shape="657.55,1439.21 657.77,1439.29"/>
    </edge>
    <edge id=":440396065_0" function="internal">
        <lane id=":440396065_0_0" index="0" disallow="pedestrian bicycle tram rail_urban rail rail_electric rail_fast ship" speed="11.15" length="13.26" shape="341.46,1389.16 345.21,1385.81 348.25,1383.45 350.59,1382.10 352.24,1381.75"/>
        <lane id=":440396065_0_1" index="1" disallow="pedestrian bicycle tram rail_urban rail rail_electric rail_fast ship" speed="11.99" length="15.40" shape="341.46,1389.16 343.37,1387.20 346.93,1383.57 350.54,1380.08 352.60,1378.57"/>
        <lane id=":440396065_0_2" index="2" disallow="pedestrian bicycle tram rail_urban rail rail_electric rail_fast ship" speed="12.90" length="17.91" shape="339.27,1386.83 344.74,1381.77 348.85,1378.17 351.59,1376.04 352.96,1375.39"/>
    </edge>
    <edge id=":440396065_3" function="internal">
        <lane id=":440396065_3_0" index="0" disallow="pedestrian bicycle tram rail_urban rail rail_electric rail_fast ship" speed="13.65" length="13.36" shape="338.35,1382.24 342.29,1383.09 345.14,1382.62 348.07,1381.84 352.24,1381.75"/>
        <lane id=":440396065_3_1" index="1" disallow="pedestrian bicycle tram rail_urban rail rail_electric rail_fast ship" speed="13.65" length="13.36" shape="339.49,1379.25 343.21,1380.02 345.90,1379.50 348.66,1378.69 352.60,1378.57"/>
        <lane id=":440396065_3_2" index="2" disallow="pedestrian bicycle tram rail_urban rail rail_electric rail_fast ship" speed="13.65" length="13.36" shape="340.63,1376.26 344.13,1376.95 346.66,1376.38 349.26,1375.54 352.96,1375.39"/>
    </edge>
    <edge id=":440398340_0" function="internal">
        <lane id=":440398340_0_0" index="0" disallow="pedestrian bicycle tram rail_urban rail rail_electric rail_fast ship" speed="13.65" length="23.36" shape="377.79,1487.64 375.81,1481.51 373.96,1476.74 372.77,1471.91 372.79,1465.64"/>
        <lane id=":440398340_0_1" index="1" disallow="pedestrian bicycle tram rail_urban rail rail_electric rail_fast ship" speed="13.65" length="23.36" shape="374.70,1488.44 372.70,1482.13 370.82,1476.96 369.60,1471.75 369.61,1465.30"/>
    </edge>
    <edge id=":440398340_2" function="internal">
        <lane id=":440398340_2_0" index="0" disallow="pedestrian bicycle tram rail_urban rail rail_electric rail_fast ship" speed="13.41" length="23.34" shape="371.11,1488.81 372.79,1465.64"/>
        <lane id=":440398340_2_1" index="1" disallow="pedestrian bicycle tram rail_urban rail rail_electric rail_fast ship" speed="13.41" length="23.34" shape="367.92,1488.68 369.61,1465.30"/>
    </edge>
    <edge id=":440399329_0" function="internal">
        <lane id=":440399329_0_0" index="0" disallow="pedestrian bicycle tram rail_urban rail rail_electric rail_fast ship" speed="13.65" length="3.38" shape="377.29,1399.40 376.70,1400.35 376.26,1400.98 375.90,1401.65 375.53,1402.69"/>
        <lane id=":440399329_0_1" index="1" disallow="pedestrian bicycle tram rail_urban rail rail_electric rail_fast ship" speed="13.65" length="3.38" shape="380.06,1401.01 379.57,1401.76 379.21,1402.26 378.90,1402.79 378.59,1403.62"/>
    </edge>
    <edge id=":440399362_0" function="internal">
        <lane id=":440399362_0_0" index="0" disallow="pedestrian bicycle tram rail_urban rail rail_electric rail_fast ship" speed="13.41" length="0.32" shape="394.32,1393.29 394.33,1393.25 394.35,1393.22 394.36,1393.19 394.39,1393.15"/>
        <lane id=":440399362_0_1" index="1" disallow="pedestrian bicycle tram rail_urban rail rail_electric rail_fast ship" speed="13.41" length="0.32" shape="391.38,1392.02 391.43,1391.89 391.48,1391.80 391.52,1391.72 391.59,1391.59"/>
    </edge>
    <edge id=":440400209_0" function="internal">
        <lane id=":440400209_0_0" index="0" disallow="pedestrian bicycle tram rail_urban rail rail_electric rail_fast ship" speed="13.65" length="17.20" shape="330.18,1326.50 325.29,1327.22 321.89,1327.20 318.47,1326.77 313.51,1326.27"/>
        <lane id=":440400209_0_1" index="1" disallow="pedestrian bicycle tram rail_urban rail rail_electric rail_fast ship" speed="13.65" length="17.20" shape="330.79,1329.64 325.66,1330.41 322.09,1330.41 318.50,1329.98 313.29,1329.46"/>
    </edge>
    <edge id=":440400209_2" function="internal">
        <lane id=":440400209_2_0" index="0" speed="13.89" length="17.93" shape="330.25,1333.60 325.47,1330.82 322.23,1328.64 318.82,1327.11 313.51,1326.27"/>
        <lane id=":440400209_2_1" index="1" speed="13.89" length="17.93" shape="328.82,1336.46 324.37,1333.84 321.38,1331.75 318.23,1330.27 313.29,1329.46"/>
    </edge>
    <edge id=":440403197_0" function="internal">
        <lane id=":440403197_0_0" index="0" disallow="pedestrian bicycle tram rail_urban rail rail_electric rail_fast ship" speed="13.41" length="3.68" shape="404.02,1495.09 404.77,1492.21"/>
        <lane id=":440403197_0_1" index="1" disallow="pedestrian bicycle tram rail_urban rail rail_electric rail_fast ship" speed="13.41" length="3.68" shape="404.02,1495.09 401.68,1491.38"/>
    </edge>
    <edge id=":440403197_2" function="internal">
        <lane id=":440403197_2_0" index="0" disallow="pedestrian bicycle tram rail_urban rail rail_electric rail_fast ship" speed="13.41" length="3.01" shape="404.02,1495.09 404.69,1492.19"/>
        <lane id=":440403197_2_1" index="1" disallow="pedestrian bicycle tram rail_urban rail rail_electric rail_fast ship" speed="13.41" length="3.01" shape="400.92,1494.32 401.60,1491.35"/>
    </edge>
    <edge id=":440827486_0" function="internal">
        <lane id=":440827486_0_0" index="0" disallow="tram rail_urban rail rail_electric rail_fast ship" speed="13.41" length="0.10" shape="219.95,1236.48 219.97,1236.40"/>
        <lane id=":440827486_0_1" index="1" disallow="tram rail_urban rail rail_electric rail_fast ship" speed="13.41" length="0.10" shape="223.10,1237.05 223.08,1237.16"/>
    </edge>
    <edge id=":440827486_2" function="internal">
        <lane id=":440827486_2_0" index="0" disallow="tram rail_urban rail rail_electric rail_fast ship" speed="13.41" length="0.40" shape="229.29,1238.69 229.39,1238.20"/>
        <lane id=":440827486_2_1" index="1" disallow="tram rail_urban rail rail_electric rail_fast ship" speed="13.41" length="0.40" shape="226.18,1237.92 226.24,1237.63"/>
    </edge>
    <edge id=":440828223_0" function="internal">
        <lane id=":440828223_0_0" index="0" disallow="tram rail_urban rail rail_electric rail_fast ship" speed="13.41" length="0.25" shape="221.07,1278.64 221.10,1278.45"/>
        <lane id=":440828223_0_1" index="1" disallow="tram rail_urban rail rail_electric rail_fast ship" speed="13.41" length="0.25" shape="217.91,1278.10 217.97,1277.81"/>
    </edge>
    <edge id=":5344200991_0" function="internal">
        <lane id=":5344200991_0_0" index="0" disallow="pedestrian bicycle tram rail_urban rail rail_electric rail_fast ship" speed="13.41" length="0.10" width="5.00" shape="106.76,1313.23 106.76,1313.23"/>
        <lane id=":5344200991_0_1" index="1" disallow="pedestrian bicycle tram rail_urban rail rail_electric rail_fast ship" speed="13.41" length="0.10" width="5.00" shape="105.97,1318.17 105.97,1318.17"/>
    </edge>
    <edge id=":5344200991_2" function="internal">
        <lane id=":5344200991_2_0" index="0" disallow="pedestrian bicycle tram rail_urban rail rail_electric rail_fast ship" speed="13.41" length="0.10" width="5.00" shape="104.40,1328.05 104.40,1328.05"/>
        <lane id=":5344200991_2_1" index="1" disallow="pedestrian bicycle tram rail_urban rail rail_electric rail_fast ship" speed="13.41" length="0.10" width="5.00" shape="105.19,1323.11 105.19,1323.11"/>
    </edge>
    <edge id=":cluster_107489_107503_2140546941_4053161802_440827599_5344182303_5344182305_0" function="internal">
        <lane id=":cluster_107489_107503_2140546941_4053161802_440827599_5344182303_5344182305_0_0" index="0" disallow="pedestrian bicycle tram rail_urban rail rail_electric rail_fast ship" speed="10.60" length="24.03" width="5.00" shape="199.92,1317.88 197.72,1321.97 193.52,1324.47 187.32,1325.39 179.12,1324.72"/>
    </edge>
    <edge id=":cluster_107489_107503_2140546941_4053161802_440827599_5344182303_5344182305_1" function="internal">
        <lane id=":cluster_107489_107503_2140546941_4053161802_440827599_5344182303_5344182305_1_0" index="0" disallow="pedestrian bicycle tram rail_urban rail rail_electric rail_fast ship" speed="13.41" length="46.60" width="5.00" shape="199.92,1317.88 200.23,1326.40 205.55,1334.02 215.89,1340.75 231.26,1346.58"/>
        <lane id=":cluster_107489_107503_2140546941_4053161802_440827599_5344182303_5344182305_1_1" index="1" disallow="pedestrian bicycle tram rail_urban rail rail_electric rail_fast ship" speed="13.41" length="43.50" width="5.00" shape="199.92,1317.88 200.76,1324.28 206.51,1330.40 217.15,1336.23 232.70,1341.79"/>
        <lane id=":cluster_107489_107503_2140546941_4053161802_440827599_5344182303_5344182305_1_2" index="2" disallow="pedestrian bicycle tram rail_urban rail rail_electric rail_fast ship" speed="13.05" length="37.96" width="5.00" shape="203.09,1318.41 204.23,1322.80 209.79,1327.36 219.76,1332.10 234.14,1337.00"/>
        <lane id=":cluster_107489_107503_2140546941_4053161802_440827599_5344182303_5344182305_1_3" index="3" disallow="pedestrian bicycle tram rail_urban rail rail_electric rail_fast ship" speed="12.68" length="35.79" width="5.00" shape="203.09,1318.41 204.77,1320.68 210.75,1323.74 221.02,1327.58 235.58,1332.22"/>
    </edge>
    <edge id=":cluster_107489_107503_2140546941_4053161802_440827599_5344182303_5344182305_5" function="internal">
        <lane id=":cluster_107489_107503_2140546941_4053161802_440827599_5344182303_5344182305_5_0" index="0" disallow="tram rail_urban rail rail_electric rail_fast ship" speed="9.28" length="23.86" shape="235.84,1323.40 225.86,1324.30 218.88,1324.07 214.91,1322.72 213.93,1320.25"/>
        <lane id=":cluster_107489_107503_2140546941_4053161802_440827599_5344182303_5344182305_5_1" index="1" disallow="tram rail_urban rail rail_electric rail_fast ship" speed="9.90" length="27.34" shape="235.84,1323.40 224.42,1324.42 216.44,1324.15 211.89,1322.58 210.77,1319.72"/>
    </edge>
    <edge id=":cluster_107489_107503_2140546941_4053161802_440827599_5344182303_5344182305_7" function="internal">
        <lane id=":cluster_107489_107503_2140546941_4053161802_440827599_5344182303_5344182305_7_0" index="0" disallow="pedestrian bicycle tram rail_urban rail rail_electric rail_fast ship" speed="13.65" length="57.42" width="5.00" shape="235.84,1323.40 224.18,1324.36 207.46,1325.12 190.75,1325.36 179.12,1324.72"/>
        <lane id=":cluster_107489_107503_2140546941_4053161802_440827599_5344182303_5344182305_7_1" index="1" disallow="pedestrian bicycle tram rail_urban rail rail_electric rail_fast ship" speed="13.65" length="57.42" width="5.00" shape="236.24,1326.58 224.40,1327.81 207.27,1329.18 190.15,1330.02 178.33,1329.66"/>
    </edge>
    <edge id=":cluster_107489_107503_2140546941_4053161802_440827599_5344182303_5344182305_9" function="internal">
        <lane id=":cluster_107489_107503_2140546941_4053161802_440827599_5344182303_5344182305_9_0" index="0" disallow="pedestrian bicycle tram rail_urban rail rail_electric rail_fast ship" speed="13.41" length="56.60" width="5.00" shape="176.76,1339.54 186.75,1340.49 200.53,1341.48 216.06,1343.27 231.26,1346.58"/>
        <lane id=":cluster_107489_107503_2140546941_4053161802_440827599_5344182303_5344182305_9_1" index="1" disallow="pedestrian bicycle tram rail_urban rail rail_electric rail_fast ship" speed="13.41" length="56.60" width="5.00" shape="176.76,1339.54 186.98,1339.74 201.25,1339.09 217.27,1339.23 232.70,1341.79"/>
        <lane id=":cluster_107489_107503_2140546941_4053161802_440827599_5344182303_5344182305_9_2" index="2" disallow="pedestrian bicycle tram rail_urban rail rail_electric rail_fast ship" speed="13.41" length="56.60" width="5.00" shape="177.55,1334.60 187.86,1334.83 202.37,1334.23 218.61,1334.42 234.14,1337.00"/>
        <lane id=":cluster_107489_107503_2140546941_4053161802_440827599_5344182303_5344182305_9_3" index="3" disallow="pedestrian bicycle tram rail_urban rail rail_electric rail_fast ship" speed="13.41" length="56.60" width="5.00" shape="177.55,1334.60 188.09,1334.08 203.09,1331.83 219.83,1330.38 235.58,1332.22"/>
    </edge>
    <edge id=":cluster_107489_107503_2140546941_4053161802_440827599_5344182303_5344182305_13" function="internal">
        <lane id=":cluster_107489_107503_2140546941_4053161802_440827599_5344182303_5344182305_13_0" index="0" disallow="pedestrian bicycle tram rail_urban rail rail_electric rail_fast ship" speed="13.41" length="43.68" shape="177.55,1334.60 192.20,1335.67 203.15,1333.63 210.39,1328.49 213.93,1320.25"/>
        <lane id=":cluster_107489_107503_2140546941_4053161802_440827599_5344182303_5344182305_13_1" index="1" disallow="pedestrian bicycle tram rail_urban rail rail_electric rail_fast ship" speed="13.41" length="40.91" shape="177.55,1334.60 190.82,1335.45 200.78,1333.25 207.43,1328.01 210.77,1319.72"/>
    </edge>
    <edge id=":cluster_2026643264_2140465349_2140510370_2140510374_2140805075_4089151443_440396074_440398915_440398917_440403474_4525051431_0" function="internal">
        <lane id=":cluster_2026643264_2140465349_2140510370_2140510374_2140805075_4089151443_440396074_440398915_440398917_440403474_4525051431_0_0" index="0" disallow="pedestrian bicycle tram rail_urban rail rail_electric rail_fast ship" speed="13.41" length="56.45" shape="452.06,1363.02 439.92,1360.17 426.09,1356.59 411.27,1353.34 396.18,1351.48"/>
        <lane id=":cluster_2026643264_2140465349_2140510370_2140510374_2140805075_4089151443_440396074_440398915_440398917_440403474_4525051431_0_1" index="1" disallow="pedestrian bicycle tram rail_urban rail rail_electric rail_fast ship" speed="13.41" length="56.45" shape="451.43,1366.16 439.36,1363.31 425.68,1359.75 411.02,1356.53 396.01,1354.67"/>
        <lane id=":cluster_2026643264_2140465349_2140510370_2140510374_2140805075_4089151443_440396074_440398915_440398917_440403474_4525051431_0_2" index="2" disallow="pedestrian bicycle tram rail_urban rail rail_electric rail_fast ship" speed="13.41" length="56.45" shape="450.80,1369.29 438.81,1366.46 425.28,1362.92 410.78,1359.71 395.83,1357.87"/>
        <lane id=":cluster_2026643264_2140465349_2140510370_2140510374_2140805075_4089151443_440396074_440398915_440398917_440403474_4525051431_0_3" index="3" disallow="pedestrian bicycle tram rail_urban rail rail_electric rail_fast ship" speed="13.41" length="56.45" shape="450.80,1369.29 438.78,1366.96 425.19,1364.52 410.63,1362.41 395.66,1361.06"/>
    </edge>
    <edge id=":cluster_2026643264_2140465349_2140510370_2140510374_2140805075_4089151443_440396074_440398915_440398917_440403474_4525051431_4" function="internal">
        <lane id=":cluster_2026643264_2140465349_2140510370_2140510374_2140805075_4089151443_440396074_440398915_440398917_440403474_4525051431_4_0" index="0" disallow="pedestrian bicycle tram rail_urban rail rail_electric rail_fast ship" speed="10.96" length="24.78" shape="432.51,1390.86 435.77,1383.50 439.68,1378.57 444.24,1376.05 449.47,1375.95"/>
        <lane id=":cluster_2026643264_2140465349_2140510370_2140510374_2140805075_4089151443_440396074_440398915_440398917_440403474_4525051431_4_1" index="1" disallow="pedestrian bicycle tram rail_urban rail rail_electric rail_fast ship" speed="11.98" length="29.77" shape="429.36,1390.20 433.24,1381.55 437.99,1375.77 443.61,1372.86 450.09,1372.81"/>
    </edge>
    <edge id=":cluster_2026643264_2140465349_2140510370_2140510374_2140805075_4089151443_440396074_440398915_440398917_440403474_4525051431_6" function="internal">
        <lane id=":cluster_2026643264_2140465349_2140510370_2140510374_2140805075_4089151443_440396074_440398915_440398917_440403474_4525051431_6_0" index="0" disallow="pedestrian bicycle tram rail_urban rail rail_electric rail_fast ship" speed="13.41" length="58.73" shape="426.29,1389.55 427.71,1372.68 423.41,1361.17 413.02,1354.34 396.18,1351.48"/>
        <lane id=":cluster_2026643264_2140465349_2140510370_2140510374_2140805075_4089151443_440396074_440398915_440398917_440403474_4525051431_6_1" index="1" disallow="pedestrian bicycle tram rail_urban rail rail_electric rail_fast ship" speed="13.41" length="52.86" shape="423.15,1388.89 424.43,1373.71 420.54,1363.37 411.17,1357.24 396.01,1354.67"/>
        <lane id=":cluster_2026643264_2140465349_2140510370_2140510374_2140805075_4089151443_440396074_440398915_440398917_440403474_4525051431_6_2" index="2" disallow="pedestrian bicycle tram rail_urban rail rail_electric rail_fast ship" speed="13.41" length="50.03" shape="423.15,1388.89 424.10,1374.74 419.87,1365.42 410.44,1360.08 395.83,1357.87"/>
        <lane id=":cluster_2026643264_2140465349_2140510370_2140510374_2140805075_4089151443_440396074_440398915_440398917_440403474_4525051431_6_3" index="3" disallow="pedestrian bicycle tram rail_urban rail rail_electric rail_fast ship" speed="13.41" length="47.35" shape="423.15,1388.89 423.80,1375.74 419.22,1367.45 409.74,1362.92 395.66,1361.06"/>
    </edge>
    <edge id=":cluster_2026643264_2140465349_2140510370_2140510374_2140805075_4089151443_440396074_440398915_440398917_440403474_4525051431_10" function="internal">