<configuration>
   <input>
       <net-file value="A13NorthCircularRoundabout.net.xml"/>
       <route-files value="A13NorthCircularRoundabout.rou.xml"/>
	   <gui-settings-file value="../map_style.xml"/>
   </input>
</configuration>
